version 2
run Deterministic-0-20210813-17:54:13-25552
attr configname Deterministic
attr datetime 20210813-17:54:13
attr experiment Deterministic
attr inifile omnetpp.ini
attr iterationvars ""
attr iterationvarsf ""
attr measurement ""
attr network Airport
attr processid 25552
attr repetition 0
attr replication #0
attr resultdir results
attr runnumber 0
attr seedset 0
param **.interarrivalDistr "\"constant\""
param **.interarrivalAvgRate "1 / 900"
param **.landingAvgRate "1 / 900"
param **.parkingAvgRate "1 / 900"
param **.takeoffAvgRate "1 / 900"

vector 0 Airport.controlTower LandingQueueTime:vector ETV
attr "" ""
attr source LandingQueueTime
vector 1 Airport.parkingArea numPlane:vector ETV
attr "" ""
attr source numPlane
vector 2 Airport.controlTower TakeoffQueueTime:vector ETV
attr "" ""
attr source TakeoffQueueTime
0	2	900	0
0	7	1800	0
0	24	4500	1800
0	29	5400	1800
0	46	8100	3600
0	51	9000	3600
0	68	11700	5400
0	73	12600	5400
0	90	15300	7200
0	95	16200	7200
0	112	18900	9000
0	117	19800	9000
0	134	22500	10800
0	139	23400	10800
0	156	26100	12600
0	161	27000	12600
0	178	29700	14400
0	183	30600	14400
0	200	33300	16200
0	205	34200	16200
0	222	36900	18000
0	227	37800	18000
0	244	40500	19800
0	249	41400	19800
0	266	44100	21600
0	271	45000	21600
0	288	47700	23400
0	293	48600	23400
0	310	51300	25200
0	315	52200	25200
0	332	54900	27000
0	337	55800	27000
0	354	58500	28800
0	359	59400	28800
0	376	62100	30600
0	381	63000	30600
0	398	65700	32400
0	403	66600	32400
0	420	69300	34200
0	425	70200	34200
0	442	72900	36000
0	447	73800	36000
0	464	76500	37800
0	469	77400	37800
0	486	80100	39600
0	491	81000	39600
0	508	83700	41400
0	513	84600	41400
0	530	87300	43200
0	535	88200	43200
0	552	90900	45000
0	557	91800	45000
0	574	94500	46800
0	579	95400	46800
0	596	98100	48600
0	601	99000	48600
0	618	101700	50400
0	623	102600	50400
0	640	105300	52200
0	645	106200	52200
0	662	108900	54000
0	667	109800	54000
0	684	112500	55800
0	689	113400	55800
0	706	116100	57600
0	711	117000	57600
0	728	119700	59400
0	733	120600	59400
0	750	123300	61200
0	755	124200	61200
0	772	126900	63000
0	777	127800	63000
0	794	130500	64800
0	799	131400	64800
0	816	134100	66600
0	821	135000	66600
0	838	137700	68400
0	843	138600	68400
0	860	141300	70200
0	865	142200	70200
0	882	144900	72000
0	887	145800	72000
0	904	148500	73800
0	909	149400	73800
0	926	152100	75600
0	931	153000	75600
0	948	155700	77400
0	953	156600	77400
0	970	159300	79200
0	975	160200	79200
0	992	162900	81000
0	997	163800	81000
0	1014	166500	82800
0	1019	167400	82800
0	1036	170100	84600
0	1041	171000	84600
0	1058	173700	86400
0	1063	174600	86400
0	1080	177300	88200
0	1085	178200	88200
0	1102	180900	90000
0	1107	181800	90000
0	1124	184500	91800
0	1129	185400	91800
0	1146	188100	93600
0	1151	189000	93600
0	1168	191700	95400
0	1173	192600	95400
0	1190	195300	97200
0	1195	196200	97200
0	1212	198900	99000
0	1217	199800	99000
0	1234	202500	100800
0	1239	203400	100800
0	1256	206100	102600
0	1261	207000	102600
0	1278	209700	104400
0	1283	210600	104400
0	1300	213300	106200
0	1305	214200	106200
0	1322	216900	108000
0	1327	217800	108000
0	1344	220500	109800
0	1349	221400	109800
0	1366	224100	111600
0	1371	225000	111600
0	1388	227700	113400
0	1393	228600	113400
0	1410	231300	115200
0	1415	232200	115200
0	1432	234900	117000
0	1437	235800	117000
0	1454	238500	118800
0	1459	239400	118800
0	1476	242100	120600
0	1481	243000	120600
0	1498	245700	122400
0	1503	246600	122400
0	1520	249300	124200
0	1525	250200	124200
0	1542	252900	126000
0	1547	253800	126000
0	1564	256500	127800
0	1569	257400	127800
0	1586	260100	129600
0	1591	261000	129600
0	1608	263700	131400
0	1613	264600	131400
0	1630	267300	133200
0	1635	268200	133200
0	1652	270900	135000
0	1657	271800	135000
0	1674	274500	136800
0	1679	275400	136800
0	1696	278100	138600
0	1701	279000	138600
0	1718	281700	140400
0	1723	282600	140400
0	1740	285300	142200
0	1745	286200	142200
0	1762	288900	144000
0	1767	289800	144000
0	1784	292500	145800
0	1789	293400	145800
0	1806	296100	147600
0	1811	297000	147600
0	1828	299700	149400
0	1833	300600	149400
0	1850	303300	151200
0	1855	304200	151200
0	1872	306900	153000
0	1877	307800	153000
0	1894	310500	154800
0	1899	311400	154800
0	1916	314100	156600
0	1921	315000	156600
0	1938	317700	158400
0	1943	318600	158400
0	1960	321300	160200
0	1965	322200	160200
0	1982	324900	162000
0	1987	325800	162000
0	2004	328500	163800
0	2009	329400	163800
0	2026	332100	165600
0	2031	333000	165600
0	2048	335700	167400
0	2053	336600	167400
0	2070	339300	169200
0	2075	340200	169200
0	2092	342900	171000
0	2097	343800	171000
0	2114	346500	172800
0	2119	347400	172800
0	2136	350100	174600
0	2141	351000	174600
0	2158	353700	176400
0	2163	354600	176400
0	2180	357300	178200
0	2185	358200	178200
0	2202	360900	180000
0	2207	361800	180000
0	2224	364500	181800
0	2229	365400	181800
0	2246	368100	183600
0	2251	369000	183600
0	2268	371700	185400
0	2273	372600	185400
0	2290	375300	187200
0	2295	376200	187200
0	2312	378900	189000
0	2317	379800	189000
0	2334	382500	190800
0	2339	383400	190800
0	2356	386100	192600
0	2361	387000	192600
0	2378	389700	194400
0	2383	390600	194400
0	2400	393300	196200
0	2405	394200	196200
0	2422	396900	198000
0	2427	397800	198000
0	2444	400500	199800
0	2449	401400	199800
0	2466	404100	201600
0	2471	405000	201600
0	2488	407700	203400
0	2493	408600	203400
0	2510	411300	205200
0	2515	412200	205200
0	2532	414900	207000
0	2537	415800	207000
0	2554	418500	208800
0	2559	419400	208800
0	2576	422100	210600
0	2581	423000	210600
0	2598	425700	212400
0	2603	426600	212400
0	2620	429300	214200
0	2625	430200	214200
0	2642	432900	216000
0	2647	433800	216000
0	2664	436500	217800
0	2669	437400	217800
0	2686	440100	219600
0	2691	441000	219600
0	2708	443700	221400
0	2713	444600	221400
0	2730	447300	223200
0	2735	448200	223200
0	2752	450900	225000
0	2757	451800	225000
0	2774	454500	226800
0	2779	455400	226800
0	2796	458100	228600
0	2801	459000	228600
0	2818	461700	230400
0	2823	462600	230400
0	2840	465300	232200
0	2845	466200	232200
0	2862	468900	234000
0	2867	469800	234000
0	2884	472500	235800
0	2889	473400	235800
0	2906	476100	237600
0	2911	477000	237600
0	2928	479700	239400
0	2933	480600	239400
0	2950	483300	241200
0	2955	484200	241200
0	2972	486900	243000
0	2977	487800	243000
0	2994	490500	244800
0	2999	491400	244800
0	3016	494100	246600
0	3021	495000	246600
0	3038	497700	248400
0	3043	498600	248400
0	3060	501300	250200
0	3065	502200	250200
0	3082	504900	252000
0	3087	505800	252000
0	3104	508500	253800
0	3109	509400	253800
0	3126	512100	255600
0	3131	513000	255600
0	3148	515700	257400
0	3153	516600	257400
0	3170	519300	259200
0	3175	520200	259200
0	3192	522900	261000
0	3197	523800	261000
0	3214	526500	262800
0	3219	527400	262800
0	3236	530100	264600
0	3241	531000	264600
0	3258	533700	266400
0	3263	534600	266400
0	3280	537300	268200
0	3285	538200	268200
0	3302	540900	270000
0	3307	541800	270000
0	3324	544500	271800
0	3329	545400	271800
0	3346	548100	273600
0	3351	549000	273600
0	3368	551700	275400
0	3373	552600	275400
0	3390	555300	277200
0	3395	556200	277200
0	3412	558900	279000
0	3417	559800	279000
0	3434	562500	280800
0	3439	563400	280800
0	3456	566100	282600
0	3461	567000	282600
0	3478	569700	284400
0	3483	570600	284400
0	3500	573300	286200
0	3505	574200	286200
0	3522	576900	288000
0	3527	577800	288000
0	3544	580500	289800
0	3549	581400	289800
0	3566	584100	291600
0	3571	585000	291600
0	3588	587700	293400
0	3593	588600	293400
0	3610	591300	295200
0	3615	592200	295200
0	3632	594900	297000
0	3637	595800	297000
0	3654	598500	298800
0	3659	599400	298800
0	3676	602100	300600
0	3681	603000	300600
0	3698	605700	302400
0	3703	606600	302400
0	3720	609300	304200
0	3725	610200	304200
0	3742	612900	306000
0	3747	613800	306000
0	3764	616500	307800
0	3769	617400	307800
0	3786	620100	309600
0	3791	621000	309600
0	3808	623700	311400
0	3813	624600	311400
0	3830	627300	313200
0	3835	628200	313200
0	3852	630900	315000
0	3857	631800	315000
0	3874	634500	316800
0	3879	635400	316800
0	3896	638100	318600
0	3901	639000	318600
0	3918	641700	320400
0	3923	642600	320400
0	3940	645300	322200
0	3945	646200	322200
0	3962	648900	324000
0	3967	649800	324000
0	3984	652500	325800
0	3989	653400	325800
0	4006	656100	327600
0	4011	657000	327600
0	4028	659700	329400
0	4033	660600	329400
0	4050	663300	331200
0	4055	664200	331200
0	4072	666900	333000
0	4077	667800	333000
0	4094	670500	334800
0	4099	671400	334800
0	4116	674100	336600
0	4121	675000	336600
0	4138	677700	338400
0	4143	678600	338400
0	4160	681300	340200
0	4165	682200	340200
0	4182	684900	342000
0	4187	685800	342000
0	4204	688500	343800
0	4209	689400	343800
0	4226	692100	345600
0	4231	693000	345600
0	4248	695700	347400
0	4253	696600	347400
0	4270	699300	349200
0	4275	700200	349200
0	4292	702900	351000
0	4297	703800	351000
0	4314	706500	352800
0	4319	707400	352800
0	4336	710100	354600
0	4341	711000	354600
0	4358	713700	356400
0	4363	714600	356400
0	4380	717300	358200
0	4385	718200	358200
0	4402	720900	360000
0	4407	721800	360000
0	4424	724500	361800
0	4429	725400	361800
0	4446	728100	363600
0	4451	729000	363600
0	4468	731700	365400
0	4473	732600	365400
0	4490	735300	367200
0	4495	736200	367200
0	4512	738900	369000
0	4517	739800	369000
0	4534	742500	370800
0	4539	743400	370800
0	4556	746100	372600
0	4561	747000	372600
0	4578	749700	374400
0	4583	750600	374400
0	4600	753300	376200
0	4605	754200	376200
0	4622	756900	378000
0	4627	757800	378000
0	4644	760500	379800
0	4649	761400	379800
0	4666	764100	381600
0	4671	765000	381600
0	4688	767700	383400
0	4693	768600	383400
0	4710	771300	385200
0	4715	772200	385200
0	4732	774900	387000
0	4737	775800	387000
0	4754	778500	388800
0	4759	779400	388800
0	4776	782100	390600
0	4781	783000	390600
0	4798	785700	392400
0	4803	786600	392400
0	4820	789300	394200
0	4825	790200	394200
0	4842	792900	396000
0	4847	793800	396000
0	4864	796500	397800
0	4869	797400	397800
0	4886	800100	399600
0	4891	801000	399600
0	4908	803700	401400
0	4913	804600	401400
0	4930	807300	403200
0	4935	808200	403200
0	4952	810900	405000
0	4957	811800	405000
0	4974	814500	406800
0	4979	815400	406800
0	4996	818100	408600
0	5001	819000	408600
0	5018	821700	410400
0	5023	822600	410400
0	5040	825300	412200
0	5045	826200	412200
0	5062	828900	414000
0	5067	829800	414000
0	5084	832500	415800
0	5089	833400	415800
0	5106	836100	417600
0	5111	837000	417600
0	5128	839700	419400
0	5133	840600	419400
0	5150	843300	421200
0	5155	844200	421200
0	5172	846900	423000
0	5177	847800	423000
0	5194	850500	424800
0	5199	851400	424800
0	5216	854100	426600
0	5221	855000	426600
0	5238	857700	428400
0	5243	858600	428400
0	5260	861300	430200
0	5265	862200	430200
0	5282	864900	432000
0	5287	865800	432000
0	5304	868500	433800
0	5309	869400	433800
0	5326	872100	435600
0	5331	873000	435600
0	5348	875700	437400
0	5353	876600	437400
0	5370	879300	439200
0	5375	880200	439200
0	5392	882900	441000
0	5397	883800	441000
0	5414	886500	442800
0	5419	887400	442800
0	5436	890100	444600
0	5441	891000	444600
0	5458	893700	446400
0	5463	894600	446400
0	5480	897300	448200
0	5485	898200	448200
0	5502	900900	450000
0	5507	901800	450000
0	5524	904500	451800
0	5529	905400	451800
0	5546	908100	453600
0	5551	909000	453600
0	5568	911700	455400
0	5573	912600	455400
0	5590	915300	457200
0	5595	916200	457200
0	5612	918900	459000
0	5617	919800	459000
0	5634	922500	460800
0	5639	923400	460800
0	5656	926100	462600
0	5661	927000	462600
0	5678	929700	464400
0	5683	930600	464400
0	5700	933300	466200
0	5705	934200	466200
0	5722	936900	468000
0	5727	937800	468000
0	5744	940500	469800
0	5749	941400	469800
0	5766	944100	471600
0	5771	945000	471600
0	5788	947700	473400
0	5793	948600	473400
0	5810	951300	475200
0	5815	952200	475200
0	5832	954900	477000
0	5837	955800	477000
0	5854	958500	478800
0	5859	959400	478800
0	5876	962100	480600
0	5881	963000	480600
0	5898	965700	482400
0	5903	966600	482400
0	5920	969300	484200
0	5925	970200	484200
0	5942	972900	486000
0	5947	973800	486000
0	5964	976500	487800
0	5969	977400	487800
0	5986	980100	489600
0	5991	981000	489600
0	6008	983700	491400
0	6013	984600	491400
0	6030	987300	493200
0	6035	988200	493200
0	6052	990900	495000
0	6057	991800	495000
0	6074	994500	496800
0	6079	995400	496800
0	6096	998100	498600
0	6101	999000	498600
0	6118	1001700	500400
0	6123	1002600	500400
0	6140	1005300	502200
0	6145	1006200	502200
0	6162	1008900	504000
0	6167	1009800	504000
0	6184	1012500	505800
0	6189	1013400	505800
0	6206	1016100	507600
0	6211	1017000	507600
0	6228	1019700	509400
0	6233	1020600	509400
0	6250	1023300	511200
0	6255	1024200	511200
0	6272	1026900	513000
0	6277	1027800	513000
0	6294	1030500	514800
0	6299	1031400	514800
0	6316	1034100	516600
0	6321	1035000	516600
0	6338	1037700	518400
0	6343	1038600	518400
0	6360	1041300	520200
0	6365	1042200	520200
0	6382	1044900	522000
0	6387	1045800	522000
0	6404	1048500	523800
0	6409	1049400	523800
0	6426	1052100	525600
0	6431	1053000	525600
0	6448	1055700	527400
0	6453	1056600	527400
0	6470	1059300	529200
0	6475	1060200	529200
0	6492	1062900	531000
0	6497	1063800	531000
0	6514	1066500	532800
0	6519	1067400	532800
0	6536	1070100	534600
0	6541	1071000	534600
0	6558	1073700	536400
0	6563	1074600	536400
0	6580	1077300	538200
0	6585	1078200	538200
0	6602	1080900	540000
0	6607	1081800	540000
0	6624	1084500	541800
0	6629	1085400	541800
0	6646	1088100	543600
0	6651	1089000	543600
0	6668	1091700	545400
0	6673	1092600	545400
0	6690	1095300	547200
0	6695	1096200	547200
0	6712	1098900	549000
0	6717	1099800	549000
0	6734	1102500	550800
0	6739	1103400	550800
0	6756	1106100	552600
0	6761	1107000	552600
0	6778	1109700	554400
0	6783	1110600	554400
0	6800	1113300	556200
0	6805	1114200	556200
0	6822	1116900	558000
0	6827	1117800	558000
0	6844	1120500	559800
0	6849	1121400	559800
0	6866	1124100	561600
0	6871	1125000	561600
0	6888	1127700	563400
0	6893	1128600	563400
0	6910	1131300	565200
0	6915	1132200	565200
0	6932	1134900	567000
0	6937	1135800	567000
0	6954	1138500	568800
0	6959	1139400	568800
0	6976	1142100	570600
0	6981	1143000	570600
0	6998	1145700	572400
0	7003	1146600	572400
0	7020	1149300	574200
0	7025	1150200	574200
0	7042	1152900	576000
0	7047	1153800	576000
0	7064	1156500	577800
0	7069	1157400	577800
0	7086	1160100	579600
0	7091	1161000	579600
0	7108	1163700	581400
0	7113	1164600	581400
0	7130	1167300	583200
0	7135	1168200	583200
0	7152	1170900	585000
0	7157	1171800	585000
0	7174	1174500	586800
0	7179	1175400	586800
0	7196	1178100	588600
0	7201	1179000	588600
0	7218	1181700	590400
0	7223	1182600	590400
0	7240	1185300	592200
0	7245	1186200	592200
0	7262	1188900	594000
0	7267	1189800	594000
0	7284	1192500	595800
0	7289	1193400	595800
0	7306	1196100	597600
0	7311	1197000	597600
0	7328	1199700	599400
0	7333	1200600	599400
0	7350	1203300	601200
0	7355	1204200	601200
0	7372	1206900	603000
0	7377	1207800	603000
0	7394	1210500	604800
0	7399	1211400	604800
0	7416	1214100	606600
0	7421	1215000	606600
0	7438	1217700	608400
0	7443	1218600	608400
0	7460	1221300	610200
0	7465	1222200	610200
0	7482	1224900	612000
0	7487	1225800	612000
0	7504	1228500	613800
0	7509	1229400	613800
0	7526	1232100	615600
0	7531	1233000	615600
0	7548	1235700	617400
0	7553	1236600	617400
0	7570	1239300	619200
0	7575	1240200	619200
0	7592	1242900	621000
0	7597	1243800	621000
0	7614	1246500	622800
0	7619	1247400	622800
0	7636	1250100	624600
0	7641	1251000	624600
0	7658	1253700	626400
0	7663	1254600	626400
0	7680	1257300	628200
0	7685	1258200	628200
0	7702	1260900	630000
0	7707	1261800	630000
0	7724	1264500	631800
0	7729	1265400	631800
0	7746	1268100	633600
0	7751	1269000	633600
0	7768	1271700	635400
0	7773	1272600	635400
0	7790	1275300	637200
0	7795	1276200	637200
0	7812	1278900	639000
0	7817	1279800	639000
0	7834	1282500	640800
0	7839	1283400	640800
0	7856	1286100	642600
0	7861	1287000	642600
0	7878	1289700	644400
0	7883	1290600	644400
0	7900	1293300	646200
0	7905	1294200	646200
0	7922	1296900	648000
0	7927	1297800	648000
0	7944	1300500	649800
0	7949	1301400	649800
0	7966	1304100	651600
0	7971	1305000	651600
0	7988	1307700	653400
0	7993	1308600	653400
0	8010	1311300	655200
0	8015	1312200	655200
0	8032	1314900	657000
0	8037	1315800	657000
0	8054	1318500	658800
0	8059	1319400	658800
0	8076	1322100	660600
0	8081	1323000	660600
0	8098	1325700	662400
0	8103	1326600	662400
0	8120	1329300	664200
0	8125	1330200	664200
0	8142	1332900	666000
0	8147	1333800	666000
0	8164	1336500	667800
0	8169	1337400	667800
0	8186	1340100	669600
0	8191	1341000	669600
0	8208	1343700	671400
0	8213	1344600	671400
0	8230	1347300	673200
0	8235	1348200	673200
0	8252	1350900	675000
0	8257	1351800	675000
0	8274	1354500	676800
0	8279	1355400	676800
0	8296	1358100	678600
0	8301	1359000	678600
0	8318	1361700	680400
0	8323	1362600	680400
0	8340	1365300	682200
0	8345	1366200	682200
0	8362	1368900	684000
0	8367	1369800	684000
0	8384	1372500	685800
0	8389	1373400	685800
0	8406	1376100	687600
0	8411	1377000	687600
0	8428	1379700	689400
0	8433	1380600	689400
0	8450	1383300	691200
0	8455	1384200	691200
0	8472	1386900	693000
0	8477	1387800	693000
0	8494	1390500	694800
0	8499	1391400	694800
0	8516	1394100	696600
0	8521	1395000	696600
0	8538	1397700	698400
0	8543	1398600	698400
0	8560	1401300	700200
0	8565	1402200	700200
0	8582	1404900	702000
0	8587	1405800	702000
0	8604	1408500	703800
0	8609	1409400	703800
0	8626	1412100	705600
0	8631	1413000	705600
0	8648	1415700	707400
0	8653	1416600	707400
0	8670	1419300	709200
0	8675	1420200	709200
0	8692	1422900	711000
0	8697	1423800	711000
0	8714	1426500	712800
0	8719	1427400	712800
0	8736	1430100	714600
0	8741	1431000	714600
0	8758	1433700	716400
0	8763	1434600	716400
0	8780	1437300	718200
0	8785	1438200	718200
0	8802	1440900	720000
0	8807	1441800	720000
0	8824	1444500	721800
0	8829	1445400	721800
0	8846	1448100	723600
0	8851	1449000	723600
0	8868	1451700	725400
0	8873	1452600	725400
0	8890	1455300	727200
0	8895	1456200	727200
0	8912	1458900	729000
0	8917	1459800	729000
0	8934	1462500	730800
0	8939	1463400	730800
0	8956	1466100	732600
0	8961	1467000	732600
0	8978	1469700	734400
0	8983	1470600	734400
0	9000	1473300	736200
0	9005	1474200	736200
0	9022	1476900	738000
0	9027	1477800	738000
0	9044	1480500	739800
0	9049	1481400	739800
0	9066	1484100	741600
0	9071	1485000	741600
0	9088	1487700	743400
0	9093	1488600	743400
0	9110	1491300	745200
0	9115	1492200	745200
0	9132	1494900	747000
0	9137	1495800	747000
0	9154	1498500	748800
0	9159	1499400	748800
0	9176	1502100	750600
0	9181	1503000	750600
0	9198	1505700	752400
0	9203	1506600	752400
0	9220	1509300	754200
0	9225	1510200	754200
0	9242	1512900	756000
0	9247	1513800	756000
0	9264	1516500	757800
0	9269	1517400	757800
0	9286	1520100	759600
0	9291	1521000	759600
0	9308	1523700	761400
0	9313	1524600	761400
0	9330	1527300	763200
0	9335	1528200	763200
0	9352	1530900	765000
0	9357	1531800	765000
0	9374	1534500	766800
0	9379	1535400	766800
0	9396	1538100	768600
0	9401	1539000	768600
0	9418	1541700	770400
0	9423	1542600	770400
0	9440	1545300	772200
0	9445	1546200	772200
0	9462	1548900	774000
0	9467	1549800	774000
0	9484	1552500	775800
0	9489	1553400	775800
0	9506	1556100	777600
0	9511	1557000	777600
0	9528	1559700	779400
0	9533	1560600	779400
0	9550	1563300	781200
0	9555	1564200	781200
0	9572	1566900	783000
0	9577	1567800	783000
0	9594	1570500	784800
0	9599	1571400	784800
0	9616	1574100	786600
0	9621	1575000	786600
0	9638	1577700	788400
0	9643	1578600	788400
0	9660	1581300	790200
0	9665	1582200	790200
0	9682	1584900	792000
0	9687	1585800	792000
0	9704	1588500	793800
0	9709	1589400	793800
0	9726	1592100	795600
0	9731	1593000	795600
0	9748	1595700	797400
0	9753	1596600	797400
0	9770	1599300	799200
0	9775	1600200	799200
0	9792	1602900	801000
0	9797	1603800	801000
0	9814	1606500	802800
0	9819	1607400	802800
0	9836	1610100	804600
0	9841	1611000	804600
0	9858	1613700	806400
0	9863	1614600	806400
0	9880	1617300	808200
0	9885	1618200	808200
0	9902	1620900	810000
0	9907	1621800	810000
0	9924	1624500	811800
0	9929	1625400	811800
0	9946	1628100	813600
0	9951	1629000	813600
0	9968	1631700	815400
0	9973	1632600	815400
0	9990	1635300	817200
0	9995	1636200	817200
0	10012	1638900	819000
0	10017	1639800	819000
0	10034	1642500	820800
0	10039	1643400	820800
0	10056	1646100	822600
0	10061	1647000	822600
0	10078	1649700	824400
0	10083	1650600	824400
0	10100	1653300	826200
0	10105	1654200	826200
0	10122	1656900	828000
0	10127	1657800	828000
0	10144	1660500	829800
0	10149	1661400	829800
0	10166	1664100	831600
0	10171	1665000	831600
0	10188	1667700	833400
0	10193	1668600	833400
0	10210	1671300	835200
0	10215	1672200	835200
0	10232	1674900	837000
0	10237	1675800	837000
0	10254	1678500	838800
0	10259	1679400	838800
0	10276	1682100	840600
0	10281	1683000	840600
0	10298	1685700	842400
0	10303	1686600	842400
0	10320	1689300	844200
0	10325	1690200	844200
0	10342	1692900	846000
0	10347	1693800	846000
0	10364	1696500	847800
0	10369	1697400	847800
0	10386	1700100	849600
0	10391	1701000	849600
0	10408	1703700	851400
0	10413	1704600	851400
0	10430	1707300	853200
0	10435	1708200	853200
0	10452	1710900	855000
0	10457	1711800	855000
0	10474	1714500	856800
0	10479	1715400	856800
0	10496	1718100	858600
0	10501	1719000	858600
0	10518	1721700	860400
0	10523	1722600	860400
0	10540	1725300	862200
0	10545	1726200	862200
0	10562	1728900	864000
0	10567	1729800	864000
0	10584	1732500	865800
0	10589	1733400	865800
0	10606	1736100	867600
0	10611	1737000	867600
0	10628	1739700	869400
0	10633	1740600	869400
0	10650	1743300	871200
0	10655	1744200	871200
0	10672	1746900	873000
0	10677	1747800	873000
0	10694	1750500	874800
0	10699	1751400	874800
0	10716	1754100	876600
0	10721	1755000	876600
0	10738	1757700	878400
0	10743	1758600	878400
0	10760	1761300	880200
0	10765	1762200	880200
0	10782	1764900	882000
0	10787	1765800	882000
0	10804	1768500	883800
0	10809	1769400	883800
0	10826	1772100	885600
0	10831	1773000	885600
0	10848	1775700	887400
0	10853	1776600	887400
0	10870	1779300	889200
0	10875	1780200	889200
0	10892	1782900	891000
0	10897	1783800	891000
0	10914	1786500	892800
0	10919	1787400	892800
0	10936	1790100	894600
0	10941	1791000	894600
0	10958	1793700	896400
0	10963	1794600	896400
0	10980	1797300	898200
0	10985	1798200	898200
0	11002	1800900	900000
0	11007	1801800	900000
0	11024	1804500	901800
0	11029	1805400	901800
0	11046	1808100	903600
0	11051	1809000	903600
0	11068	1811700	905400
0	11073	1812600	905400
0	11090	1815300	907200
0	11095	1816200	907200
0	11112	1818900	909000
0	11117	1819800	909000
0	11134	1822500	910800
0	11139	1823400	910800
0	11156	1826100	912600
0	11161	1827000	912600
0	11178	1829700	914400
0	11183	1830600	914400
0	11200	1833300	916200
0	11205	1834200	916200
0	11222	1836900	918000
0	11227	1837800	918000
0	11244	1840500	919800
0	11249	1841400	919800
0	11266	1844100	921600
0	11271	1845000	921600
0	11288	1847700	923400
0	11293	1848600	923400
0	11310	1851300	925200
0	11315	1852200	925200
0	11332	1854900	927000
0	11337	1855800	927000
0	11354	1858500	928800
0	11359	1859400	928800
0	11376	1862100	930600
0	11381	1863000	930600
0	11398	1865700	932400
0	11403	1866600	932400
0	11420	1869300	934200
0	11425	1870200	934200
0	11442	1872900	936000
0	11447	1873800	936000
0	11464	1876500	937800
0	11469	1877400	937800
0	11486	1880100	939600
0	11491	1881000	939600
0	11508	1883700	941400
0	11513	1884600	941400
0	11530	1887300	943200
0	11535	1888200	943200
0	11552	1890900	945000
0	11557	1891800	945000
0	11574	1894500	946800
0	11579	1895400	946800
0	11596	1898100	948600
0	11601	1899000	948600
0	11618	1901700	950400
0	11623	1902600	950400
0	11640	1905300	952200
0	11645	1906200	952200
0	11662	1908900	954000
0	11667	1909800	954000
0	11684	1912500	955800
0	11689	1913400	955800
0	11706	1916100	957600
0	11711	1917000	957600
0	11728	1919700	959400
0	11733	1920600	959400
0	11750	1923300	961200
0	11755	1924200	961200
0	11772	1926900	963000
0	11777	1927800	963000
0	11794	1930500	964800
0	11799	1931400	964800
0	11816	1934100	966600
0	11821	1935000	966600
0	11838	1937700	968400
0	11843	1938600	968400
0	11860	1941300	970200
0	11865	1942200	970200
0	11882	1944900	972000
0	11887	1945800	972000
0	11904	1948500	973800
0	11909	1949400	973800
0	11926	1952100	975600
0	11931	1953000	975600
0	11948	1955700	977400
0	11953	1956600	977400
0	11970	1959300	979200
0	11975	1960200	979200
0	11992	1962900	981000
0	11997	1963800	981000
0	12014	1966500	982800
0	12019	1967400	982800
0	12036	1970100	984600
0	12041	1971000	984600
0	12058	1973700	986400
0	12063	1974600	986400
0	12080	1977300	988200
0	12085	1978200	988200
0	12102	1980900	990000
0	12107	1981800	990000
0	12124	1984500	991800
0	12129	1985400	991800
0	12146	1988100	993600
0	12151	1989000	993600
0	12168	1991700	995400
0	12173	1992600	995400
0	12190	1995300	997200
0	12195	1996200	997200
0	12212	1998900	999000
0	12217	1999800	999000
0	12234	2002500	1000800
0	12239	2003400	1000800
0	12256	2006100	1002600
0	12261	2007000	1002600
0	12278	2009700	1004400
0	12283	2010600	1004400
0	12300	2013300	1006200
0	12305	2014200	1006200
0	12322	2016900	1008000
0	12327	2017800	1008000
0	12344	2020500	1009800
0	12349	2021400	1009800
0	12366	2024100	1011600
0	12371	2025000	1011600
0	12388	2027700	1013400
0	12393	2028600	1013400
0	12410	2031300	1015200
0	12415	2032200	1015200
0	12432	2034900	1017000
0	12437	2035800	1017000
0	12454	2038500	1018800
0	12459	2039400	1018800
0	12476	2042100	1020600
0	12481	2043000	1020600
0	12498	2045700	1022400
0	12503	2046600	1022400
0	12520	2049300	1024200
0	12525	2050200	1024200
0	12542	2052900	1026000
0	12547	2053800	1026000
0	12564	2056500	1027800
0	12569	2057400	1027800
0	12586	2060100	1029600
0	12591	2061000	1029600
0	12608	2063700	1031400
0	12613	2064600	1031400
0	12630	2067300	1033200
0	12635	2068200	1033200
0	12652	2070900	1035000
0	12657	2071800	1035000
0	12674	2074500	1036800
0	12679	2075400	1036800
0	12696	2078100	1038600
0	12701	2079000	1038600
0	12718	2081700	1040400
0	12723	2082600	1040400
0	12740	2085300	1042200
0	12745	2086200	1042200
0	12762	2088900	1044000
0	12767	2089800	1044000
0	12784	2092500	1045800
0	12789	2093400	1045800
0	12806	2096100	1047600
0	12811	2097000	1047600
0	12828	2099700	1049400
0	12833	2100600	1049400
0	12850	2103300	1051200
0	12855	2104200	1051200
0	12872	2106900	1053000
0	12877	2107800	1053000
0	12894	2110500	1054800
0	12899	2111400	1054800
0	12916	2114100	1056600
0	12921	2115000	1056600
0	12938	2117700	1058400
0	12943	2118600	1058400
0	12960	2121300	1060200
0	12965	2122200	1060200
0	12982	2124900	1062000
0	12987	2125800	1062000
0	13004	2128500	1063800
0	13009	2129400	1063800
0	13026	2132100	1065600
0	13031	2133000	1065600
0	13048	2135700	1067400
0	13053	2136600	1067400
0	13070	2139300	1069200
0	13075	2140200	1069200
0	13092	2142900	1071000
0	13097	2143800	1071000
0	13114	2146500	1072800
0	13119	2147400	1072800
0	13136	2150100	1074600
0	13141	2151000	1074600
0	13158	2153700	1076400
0	13163	2154600	1076400
0	13180	2157300	1078200
0	13185	2158200	1078200
0	13202	2160900	1080000
0	13207	2161800	1080000
0	13224	2164500	1081800
0	13229	2165400	1081800
0	13246	2168100	1083600
0	13251	2169000	1083600
0	13268	2171700	1085400
0	13273	2172600	1085400
0	13290	2175300	1087200
0	13295	2176200	1087200
0	13312	2178900	1089000
0	13317	2179800	1089000
0	13334	2182500	1090800
0	13339	2183400	1090800
0	13356	2186100	1092600
0	13361	2187000	1092600
0	13378	2189700	1094400
0	13383	2190600	1094400
0	13400	2193300	1096200
0	13405	2194200	1096200
0	13422	2196900	1098000
0	13427	2197800	1098000
0	13444	2200500	1099800
0	13449	2201400	1099800
0	13466	2204100	1101600
0	13471	2205000	1101600
0	13488	2207700	1103400
0	13493	2208600	1103400
0	13510	2211300	1105200
0	13515	2212200	1105200
0	13532	2214900	1107000
0	13537	2215800	1107000
0	13554	2218500	1108800
0	13559	2219400	1108800
0	13576	2222100	1110600
0	13581	2223000	1110600
0	13598	2225700	1112400
0	13603	2226600	1112400
0	13620	2229300	1114200
0	13625	2230200	1114200
0	13642	2232900	1116000
0	13647	2233800	1116000
0	13664	2236500	1117800
0	13669	2237400	1117800
0	13686	2240100	1119600
0	13691	2241000	1119600
0	13708	2243700	1121400
0	13713	2244600	1121400
0	13730	2247300	1123200
0	13735	2248200	1123200
0	13752	2250900	1125000
0	13757	2251800	1125000
0	13774	2254500	1126800
0	13779	2255400	1126800
0	13796	2258100	1128600
0	13801	2259000	1128600
0	13818	2261700	1130400
0	13823	2262600	1130400
0	13840	2265300	1132200
0	13845	2266200	1132200
0	13862	2268900	1134000
0	13867	2269800	1134000
0	13884	2272500	1135800
0	13889	2273400	1135800
0	13906	2276100	1137600
0	13911	2277000	1137600
0	13928	2279700	1139400
0	13933	2280600	1139400
0	13950	2283300	1141200
0	13955	2284200	1141200
0	13972	2286900	1143000
0	13977	2287800	1143000
0	13994	2290500	1144800
0	13999	2291400	1144800
0	14016	2294100	1146600
0	14021	2295000	1146600
0	14038	2297700	1148400
0	14043	2298600	1148400
0	14060	2301300	1150200
0	14065	2302200	1150200
0	14082	2304900	1152000
0	14087	2305800	1152000
0	14104	2308500	1153800
0	14109	2309400	1153800
0	14126	2312100	1155600
0	14131	2313000	1155600
0	14148	2315700	1157400
0	14153	2316600	1157400
0	14170	2319300	1159200
0	14175	2320200	1159200
0	14192	2322900	1161000
0	14197	2323800	1161000
0	14214	2326500	1162800
0	14219	2327400	1162800
0	14236	2330100	1164600
0	14241	2331000	1164600
0	14258	2333700	1166400
0	14263	2334600	1166400
0	14280	2337300	1168200
0	14285	2338200	1168200
0	14302	2340900	1170000
0	14307	2341800	1170000
0	14324	2344500	1171800
0	14329	2345400	1171800
0	14346	2348100	1173600
0	14351	2349000	1173600
0	14368	2351700	1175400
0	14373	2352600	1175400
0	14390	2355300	1177200
0	14395	2356200	1177200
0	14412	2358900	1179000
0	14417	2359800	1179000
0	14434	2362500	1180800
0	14439	2363400	1180800
0	14456	2366100	1182600
0	14461	2367000	1182600
0	14478	2369700	1184400
0	14483	2370600	1184400
0	14500	2373300	1186200
0	14505	2374200	1186200
0	14522	2376900	1188000
0	14527	2377800	1188000
0	14544	2380500	1189800
0	14549	2381400	1189800
0	14566	2384100	1191600
0	14571	2385000	1191600
0	14588	2387700	1193400
0	14593	2388600	1193400
0	14610	2391300	1195200
0	14615	2392200	1195200
0	14632	2394900	1197000
0	14637	2395800	1197000
0	14654	2398500	1198800
0	14659	2399400	1198800
0	14676	2402100	1200600
0	14681	2403000	1200600
0	14698	2405700	1202400
0	14703	2406600	1202400
0	14720	2409300	1204200
0	14725	2410200	1204200
0	14742	2412900	1206000
0	14747	2413800	1206000
0	14764	2416500	1207800
0	14769	2417400	1207800
0	14786	2420100	1209600
0	14791	2421000	1209600
0	14808	2423700	1211400
0	14813	2424600	1211400
0	14830	2427300	1213200
0	14835	2428200	1213200
0	14852	2430900	1215000
0	14857	2431800	1215000
0	14874	2434500	1216800
0	14879	2435400	1216800
0	14896	2438100	1218600
0	14901	2439000	1218600
0	14918	2441700	1220400
0	14923	2442600	1220400
0	14940	2445300	1222200
0	14945	2446200	1222200
0	14962	2448900	1224000
0	14967	2449800	1224000
0	14984	2452500	1225800
0	14989	2453400	1225800
0	15006	2456100	1227600
0	15011	2457000	1227600
0	15028	2459700	1229400
0	15033	2460600	1229400
0	15050	2463300	1231200
0	15055	2464200	1231200
0	15072	2466900	1233000
0	15077	2467800	1233000
0	15094	2470500	1234800
0	15099	2471400	1234800
0	15116	2474100	1236600
0	15121	2475000	1236600
0	15138	2477700	1238400
0	15143	2478600	1238400
0	15160	2481300	1240200
0	15165	2482200	1240200
0	15182	2484900	1242000
0	15187	2485800	1242000
0	15204	2488500	1243800
0	15209	2489400	1243800
0	15226	2492100	1245600
0	15231	2493000	1245600
0	15248	2495700	1247400
0	15253	2496600	1247400
0	15270	2499300	1249200
0	15275	2500200	1249200
0	15292	2502900	1251000
0	15297	2503800	1251000
0	15314	2506500	1252800
0	15319	2507400	1252800
0	15336	2510100	1254600
0	15341	2511000	1254600
0	15358	2513700	1256400
0	15363	2514600	1256400
0	15380	2517300	1258200
0	15385	2518200	1258200
0	15402	2520900	1260000
0	15407	2521800	1260000
0	15424	2524500	1261800
0	15429	2525400	1261800
0	15446	2528100	1263600
0	15451	2529000	1263600
0	15468	2531700	1265400
0	15473	2532600	1265400
0	15490	2535300	1267200
0	15495	2536200	1267200
0	15512	2538900	1269000
0	15517	2539800	1269000
0	15534	2542500	1270800
0	15539	2543400	1270800
0	15556	2546100	1272600
0	15561	2547000	1272600
0	15578	2549700	1274400
0	15583	2550600	1274400
0	15600	2553300	1276200
0	15605	2554200	1276200
0	15622	2556900	1278000
0	15627	2557800	1278000
0	15644	2560500	1279800
0	15649	2561400	1279800
0	15666	2564100	1281600
0	15671	2565000	1281600
0	15688	2567700	1283400
0	15693	2568600	1283400
0	15710	2571300	1285200
0	15715	2572200	1285200
0	15732	2574900	1287000
0	15737	2575800	1287000
0	15754	2578500	1288800
0	15759	2579400	1288800
0	15776	2582100	1290600
0	15781	2583000	1290600
0	15798	2585700	1292400
0	15803	2586600	1292400
0	15820	2589300	1294200
0	15825	2590200	1294200
1	6	1800	1
1	9	2700	0
1	13	2700	1
1	16	3600	0
1	28	5400	1
1	31	6300	0
1	35	6300	1
1	38	7200	0
1	50	9000	1
1	53	9900	0
1	57	9900	1
1	60	10800	0
1	72	12600	1
1	75	13500	0
1	79	13500	1
1	82	14400	0
1	94	16200	1
1	97	17100	0
1	101	17100	1
1	104	18000	0
1	116	19800	1
1	119	20700	0
1	123	20700	1
1	126	21600	0
1	138	23400	1
1	141	24300	0
1	145	24300	1
1	148	25200	0
1	160	27000	1
1	163	27900	0
1	167	27900	1
1	170	28800	0
1	182	30600	1
1	185	31500	0
1	189	31500	1
1	192	32400	0
1	204	34200	1
1	207	35100	0
1	211	35100	1
1	214	36000	0
1	226	37800	1
1	229	38700	0
1	233	38700	1
1	236	39600	0
1	248	41400	1
1	251	42300	0
1	255	42300	1
1	258	43200	0
1	270	45000	1
1	273	45900	0
1	277	45900	1
1	280	46800	0
1	292	48600	1
1	295	49500	0
1	299	49500	1
1	302	50400	0
1	314	52200	1
1	317	53100	0
1	321	53100	1
1	324	54000	0
1	336	55800	1
1	339	56700	0
1	343	56700	1
1	346	57600	0
1	358	59400	1
1	361	60300	0
1	365	60300	1
1	368	61200	0
1	380	63000	1
1	383	63900	0
1	387	63900	1
1	390	64800	0
1	402	66600	1
1	405	67500	0
1	409	67500	1
1	412	68400	0
1	424	70200	1
1	427	71100	0
1	431	71100	1
1	434	72000	0
1	446	73800	1
1	449	74700	0
1	453	74700	1
1	456	75600	0
1	468	77400	1
1	471	78300	0
1	475	78300	1
1	478	79200	0
1	490	81000	1
1	493	81900	0
1	497	81900	1
1	500	82800	0
1	512	84600	1
1	515	85500	0
1	519	85500	1
1	522	86400	0
1	534	88200	1
1	537	89100	0
1	541	89100	1
1	544	90000	0
1	556	91800	1
1	559	92700	0
1	563	92700	1
1	566	93600	0
1	578	95400	1
1	581	96300	0
1	585	96300	1
1	588	97200	0
1	600	99000	1
1	603	99900	0
1	607	99900	1
1	610	100800	0
1	622	102600	1
1	625	103500	0
1	629	103500	1
1	632	104400	0
1	644	106200	1
1	647	107100	0
1	651	107100	1
1	654	108000	0
1	666	109800	1
1	669	110700	0
1	673	110700	1
1	676	111600	0
1	688	113400	1
1	691	114300	0
1	695	114300	1
1	698	115200	0
1	710	117000	1
1	713	117900	0
1	717	117900	1
1	720	118800	0
1	732	120600	1
1	735	121500	0
1	739	121500	1
1	742	122400	0
1	754	124200	1
1	757	125100	0
1	761	125100	1
1	764	126000	0
1	776	127800	1
1	779	128700	0
1	783	128700	1
1	786	129600	0
1	798	131400	1
1	801	132300	0
1	805	132300	1
1	808	133200	0
1	820	135000	1
1	823	135900	0
1	827	135900	1
1	830	136800	0
1	842	138600	1
1	845	139500	0
1	849	139500	1
1	852	140400	0
1	864	142200	1
1	867	143100	0
1	871	143100	1
1	874	144000	0
1	886	145800	1
1	889	146700	0
1	893	146700	1
1	896	147600	0
1	908	149400	1
1	911	150300	0
1	915	150300	1
1	918	151200	0
1	930	153000	1
1	933	153900	0
1	937	153900	1
1	940	154800	0
1	952	156600	1
1	955	157500	0
1	959	157500	1
1	962	158400	0
1	974	160200	1
1	977	161100	0
1	981	161100	1
1	984	162000	0
1	996	163800	1
1	999	164700	0
1	1003	164700	1
1	1006	165600	0
1	1018	167400	1
1	1021	168300	0
1	1025	168300	1
1	1028	169200	0
1	1040	171000	1
1	1043	171900	0
1	1047	171900	1
1	1050	172800	0
1	1062	174600	1
1	1065	175500	0
1	1069	175500	1
1	1072	176400	0
1	1084	178200	1
1	1087	179100	0
1	1091	179100	1
1	1094	180000	0
1	1106	181800	1
1	1109	182700	0
1	1113	182700	1
1	1116	183600	0
1	1128	185400	1
1	1131	186300	0
1	1135	186300	1
1	1138	187200	0
1	1150	189000	1
1	1153	189900	0
1	1157	189900	1
1	1160	190800	0
1	1172	192600	1
1	1175	193500	0
1	1179	193500	1
1	1182	194400	0
1	1194	196200	1
1	1197	197100	0
1	1201	197100	1
1	1204	198000	0
1	1216	199800	1
1	1219	200700	0
1	1223	200700	1
1	1226	201600	0
1	1238	203400	1
1	1241	204300	0
1	1245	204300	1
1	1248	205200	0
1	1260	207000	1
1	1263	207900	0
1	1267	207900	1
1	1270	208800	0
1	1282	210600	1
1	1285	211500	0
1	1289	211500	1
1	1292	212400	0
1	1304	214200	1
1	1307	215100	0
1	1311	215100	1
1	1314	216000	0
1	1326	217800	1
1	1329	218700	0
1	1333	218700	1
1	1336	219600	0
1	1348	221400	1
1	1351	222300	0
1	1355	222300	1
1	1358	223200	0
1	1370	225000	1
1	1373	225900	0
1	1377	225900	1
1	1380	226800	0
1	1392	228600	1
1	1395	229500	0
1	1399	229500	1
1	1402	230400	0
1	1414	232200	1
1	1417	233100	0
1	1421	233100	1
1	1424	234000	0
1	1436	235800	1
1	1439	236700	0
1	1443	236700	1
1	1446	237600	0
1	1458	239400	1
1	1461	240300	0
1	1465	240300	1
1	1468	241200	0
1	1480	243000	1
1	1483	243900	0
1	1487	243900	1
1	1490	244800	0
1	1502	246600	1
1	1505	247500	0
1	1509	247500	1
1	1512	248400	0
1	1524	250200	1
1	1527	251100	0
1	1531	251100	1
1	1534	252000	0
1	1546	253800	1
1	1549	254700	0
1	1553	254700	1
1	1556	255600	0
1	1568	257400	1
1	1571	258300	0
1	1575	258300	1
1	1578	259200	0
1	1590	261000	1
1	1593	261900	0
1	1597	261900	1
1	1600	262800	0
1	1612	264600	1
1	1615	265500	0
1	1619	265500	1
1	1622	266400	0
1	1634	268200	1
1	1637	269100	0
1	1641	269100	1
1	1644	270000	0
1	1656	271800	1
1	1659	272700	0
1	1663	272700	1
1	1666	273600	0
1	1678	275400	1
1	1681	276300	0
1	1685	276300	1
1	1688	277200	0
1	1700	279000	1
1	1703	279900	0
1	1707	279900	1
1	1710	280800	0
1	1722	282600	1
1	1725	283500	0
1	1729	283500	1
1	1732	284400	0
1	1744	286200	1
1	1747	287100	0
1	1751	287100	1
1	1754	288000	0
1	1766	289800	1
1	1769	290700	0
1	1773	290700	1
1	1776	291600	0
1	1788	293400	1
1	1791	294300	0
1	1795	294300	1
1	1798	295200	0
1	1810	297000	1
1	1813	297900	0
1	1817	297900	1
1	1820	298800	0
1	1832	300600	1
1	1835	301500	0
1	1839	301500	1
1	1842	302400	0
1	1854	304200	1
1	1857	305100	0
1	1861	305100	1
1	1864	306000	0
1	1876	307800	1
1	1879	308700	0
1	1883	308700	1
1	1886	309600	0
1	1898	311400	1
1	1901	312300	0
1	1905	312300	1
1	1908	313200	0
1	1920	315000	1
1	1923	315900	0
1	1927	315900	1
1	1930	316800	0
1	1942	318600	1
1	1945	319500	0
1	1949	319500	1
1	1952	320400	0
1	1964	322200	1
1	1967	323100	0
1	1971	323100	1
1	1974	324000	0
1	1986	325800	1
1	1989	326700	0
1	1993	326700	1
1	1996	327600	0
1	2008	329400	1
1	2011	330300	0
1	2015	330300	1
1	2018	331200	0
1	2030	333000	1
1	2033	333900	0
1	2037	333900	1
1	2040	334800	0
1	2052	336600	1
1	2055	337500	0
1	2059	337500	1
1	2062	338400	0
1	2074	340200	1
1	2077	341100	0
1	2081	341100	1
1	2084	342000	0
1	2096	343800	1
1	2099	344700	0
1	2103	344700	1
1	2106	345600	0
1	2118	347400	1
1	2121	348300	0
1	2125	348300	1
1	2128	349200	0
1	2140	351000	1
1	2143	351900	0
1	2147	351900	1
1	2150	352800	0
1	2162	354600	1
1	2165	355500	0
1	2169	355500	1
1	2172	356400	0
1	2184	358200	1
1	2187	359100	0
1	2191	359100	1
1	2194	360000	0
1	2206	361800	1
1	2209	362700	0
1	2213	362700	1
1	2216	363600	0
1	2228	365400	1
1	2231	366300	0
1	2235	366300	1
1	2238	367200	0
1	2250	369000	1
1	2253	369900	0
1	2257	369900	1
1	2260	370800	0
1	2272	372600	1
1	2275	373500	0
1	2279	373500	1
1	2282	374400	0
1	2294	376200	1
1	2297	377100	0
1	2301	377100	1
1	2304	378000	0
1	2316	379800	1
1	2319	380700	0
1	2323	380700	1
1	2326	381600	0
1	2338	383400	1
1	2341	384300	0
1	2345	384300	1
1	2348	385200	0
1	2360	387000	1
1	2363	387900	0
1	2367	387900	1
1	2370	388800	0
1	2382	390600	1
1	2385	391500	0
1	2389	391500	1
1	2392	392400	0
1	2404	394200	1
1	2407	395100	0
1	2411	395100	1
1	2414	396000	0
1	2426	397800	1
1	2429	398700	0
1	2433	398700	1
1	2436	399600	0
1	2448	401400	1
1	2451	402300	0
1	2455	402300	1
1	2458	403200	0
1	2470	405000	1
1	2473	405900	0
1	2477	405900	1
1	2480	406800	0
1	2492	408600	1
1	2495	409500	0
1	2499	409500	1
1	2502	410400	0
1	2514	412200	1
1	2517	413100	0
1	2521	413100	1
1	2524	414000	0
1	2536	415800	1
1	2539	416700	0
1	2543	416700	1
1	2546	417600	0
1	2558	419400	1
1	2561	420300	0
1	2565	420300	1
1	2568	421200	0
1	2580	423000	1
1	2583	423900	0
1	2587	423900	1
1	2590	424800	0
1	2602	426600	1
1	2605	427500	0
1	2609	427500	1
1	2612	428400	0
1	2624	430200	1
1	2627	431100	0
1	2631	431100	1
1	2634	432000	0
1	2646	433800	1
1	2649	434700	0
1	2653	434700	1
1	2656	435600	0
1	2668	437400	1
1	2671	438300	0
1	2675	438300	1
1	2678	439200	0
1	2690	441000	1
1	2693	441900	0
1	2697	441900	1
1	2700	442800	0
1	2712	444600	1
1	2715	445500	0
1	2719	445500	1
1	2722	446400	0
1	2734	448200	1
1	2737	449100	0
1	2741	449100	1
1	2744	450000	0
1	2756	451800	1
1	2759	452700	0
1	2763	452700	1
1	2766	453600	0
1	2778	455400	1
1	2781	456300	0
1	2785	456300	1
1	2788	457200	0
1	2800	459000	1
1	2803	459900	0
1	2807	459900	1
1	2810	460800	0
1	2822	462600	1
1	2825	463500	0
1	2829	463500	1
1	2832	464400	0
1	2844	466200	1
1	2847	467100	0
1	2851	467100	1
1	2854	468000	0
1	2866	469800	1
1	2869	470700	0
1	2873	470700	1
1	2876	471600	0
1	2888	473400	1
1	2891	474300	0
1	2895	474300	1
1	2898	475200	0
1	2910	477000	1
1	2913	477900	0
1	2917	477900	1
1	2920	478800	0
1	2932	480600	1
1	2935	481500	0
1	2939	481500	1
1	2942	482400	0
1	2954	484200	1
1	2957	485100	0
1	2961	485100	1
1	2964	486000	0
1	2976	487800	1
1	2979	488700	0
1	2983	488700	1
1	2986	489600	0
1	2998	491400	1
1	3001	492300	0
1	3005	492300	1
1	3008	493200	0
1	3020	495000	1
1	3023	495900	0
1	3027	495900	1
1	3030	496800	0
1	3042	498600	1
1	3045	499500	0
1	3049	499500	1
1	3052	500400	0
1	3064	502200	1
1	3067	503100	0
1	3071	503100	1
1	3074	504000	0
1	3086	505800	1
1	3089	506700	0
1	3093	506700	1
1	3096	507600	0
1	3108	509400	1
1	3111	510300	0
1	3115	510300	1
1	3118	511200	0
1	3130	513000	1
1	3133	513900	0
1	3137	513900	1
1	3140	514800	0
1	3152	516600	1
1	3155	517500	0
1	3159	517500	1
1	3162	518400	0
1	3174	520200	1
1	3177	521100	0
1	3181	521100	1
1	3184	522000	0
1	3196	523800	1
1	3199	524700	0
1	3203	524700	1
1	3206	525600	0
1	3218	527400	1
1	3221	528300	0
1	3225	528300	1
1	3228	529200	0
1	3240	531000	1
1	3243	531900	0
1	3247	531900	1
1	3250	532800	0
1	3262	534600	1
1	3265	535500	0
1	3269	535500	1
1	3272	536400	0
1	3284	538200	1
1	3287	539100	0
1	3291	539100	1
1	3294	540000	0
1	3306	541800	1
1	3309	542700	0
1	3313	542700	1
1	3316	543600	0
1	3328	545400	1
1	3331	546300	0
1	3335	546300	1
1	3338	547200	0
1	3350	549000	1
1	3353	549900	0
1	3357	549900	1
1	3360	550800	0
1	3372	552600	1
1	3375	553500	0
1	3379	553500	1
1	3382	554400	0
1	3394	556200	1
1	3397	557100	0
1	3401	557100	1
1	3404	558000	0
1	3416	559800	1
1	3419	560700	0
1	3423	560700	1
1	3426	561600	0
1	3438	563400	1
1	3441	564300	0
1	3445	564300	1
1	3448	565200	0
1	3460	567000	1
1	3463	567900	0
1	3467	567900	1
1	3470	568800	0
1	3482	570600	1
1	3485	571500	0
1	3489	571500	1
1	3492	572400	0
1	3504	574200	1
1	3507	575100	0
1	3511	575100	1
1	3514	576000	0
1	3526	577800	1
1	3529	578700	0
1	3533	578700	1
1	3536	579600	0
1	3548	581400	1
1	3551	582300	0
1	3555	582300	1
1	3558	583200	0
1	3570	585000	1
1	3573	585900	0
1	3577	585900	1
1	3580	586800	0
1	3592	588600	1
1	3595	589500	0
1	3599	589500	1
1	3602	590400	0
1	3614	592200	1
1	3617	593100	0
1	3621	593100	1
1	3624	594000	0
1	3636	595800	1
1	3639	596700	0
1	3643	596700	1
1	3646	597600	0
1	3658	599400	1
1	3661	600300	0
1	3665	600300	1
1	3668	601200	0
1	3680	603000	1
1	3683	603900	0
1	3687	603900	1
1	3690	604800	0
1	3702	606600	1
1	3705	607500	0
1	3709	607500	1
1	3712	608400	0
1	3724	610200	1
1	3727	611100	0
1	3731	611100	1
1	3734	612000	0
1	3746	613800	1
1	3749	614700	0
1	3753	614700	1
1	3756	615600	0
1	3768	617400	1
1	3771	618300	0
1	3775	618300	1
1	3778	619200	0
1	3790	621000	1
1	3793	621900	0
1	3797	621900	1
1	3800	622800	0
1	3812	624600	1
1	3815	625500	0
1	3819	625500	1
1	3822	626400	0
1	3834	628200	1
1	3837	629100	0
1	3841	629100	1
1	3844	630000	0
1	3856	631800	1
1	3859	632700	0
1	3863	632700	1
1	3866	633600	0
1	3878	635400	1
1	3881	636300	0
1	3885	636300	1
1	3888	637200	0
1	3900	639000	1
1	3903	639900	0
1	3907	639900	1
1	3910	640800	0
1	3922	642600	1
1	3925	643500	0
1	3929	643500	1
1	3932	644400	0
1	3944	646200	1
1	3947	647100	0
1	3951	647100	1
1	3954	648000	0
1	3966	649800	1
1	3969	650700	0
1	3973	650700	1
1	3976	651600	0
1	3988	653400	1
1	3991	654300	0
1	3995	654300	1
1	3998	655200	0
1	4010	657000	1
1	4013	657900	0
1	4017	657900	1
1	4020	658800	0
1	4032	660600	1
1	4035	661500	0
1	4039	661500	1
1	4042	662400	0
1	4054	664200	1
1	4057	665100	0
1	4061	665100	1
1	4064	666000	0
1	4076	667800	1
1	4079	668700	0
1	4083	668700	1
1	4086	669600	0
1	4098	671400	1
1	4101	672300	0
1	4105	672300	1
1	4108	673200	0
1	4120	675000	1
1	4123	675900	0
1	4127	675900	1
1	4130	676800	0
1	4142	678600	1
1	4145	679500	0
1	4149	679500	1
1	4152	680400	0
1	4164	682200	1
1	4167	683100	0
1	4171	683100	1
1	4174	684000	0
1	4186	685800	1
1	4189	686700	0
1	4193	686700	1
1	4196	687600	0
1	4208	689400	1
1	4211	690300	0
1	4215	690300	1
1	4218	691200	0
1	4230	693000	1
1	4233	693900	0
1	4237	693900	1
1	4240	694800	0
1	4252	696600	1
1	4255	697500	0
1	4259	697500	1
1	4262	698400	0
1	4274	700200	1
1	4277	701100	0
1	4281	701100	1
1	4284	702000	0
1	4296	703800	1
1	4299	704700	0
1	4303	704700	1
1	4306	705600	0
1	4318	707400	1
1	4321	708300	0
1	4325	708300	1
1	4328	709200	0
1	4340	711000	1
1	4343	711900	0
1	4347	711900	1
1	4350	712800	0
1	4362	714600	1
1	4365	715500	0
1	4369	715500	1
1	4372	716400	0
1	4384	718200	1
1	4387	719100	0
1	4391	719100	1
1	4394	720000	0
1	4406	721800	1
1	4409	722700	0
1	4413	722700	1
1	4416	723600	0
1	4428	725400	1
1	4431	726300	0
1	4435	726300	1
1	4438	727200	0
1	4450	729000	1
1	4453	729900	0
1	4457	729900	1
1	4460	730800	0
1	4472	732600	1
1	4475	733500	0
1	4479	733500	1
1	4482	734400	0
1	4494	736200	1
1	4497	737100	0
1	4501	737100	1
1	4504	738000	0
1	4516	739800	1
1	4519	740700	0
1	4523	740700	1
1	4526	741600	0
1	4538	743400	1
1	4541	744300	0
1	4545	744300	1
1	4548	745200	0
1	4560	747000	1
1	4563	747900	0
1	4567	747900	1
1	4570	748800	0
1	4582	750600	1
1	4585	751500	0
1	4589	751500	1
1	4592	752400	0
1	4604	754200	1
1	4607	755100	0
1	4611	755100	1
1	4614	756000	0
1	4626	757800	1
1	4629	758700	0
1	4633	758700	1
1	4636	759600	0
1	4648	761400	1
1	4651	762300	0
1	4655	762300	1
1	4658	763200	0
1	4670	765000	1
1	4673	765900	0
1	4677	765900	1
1	4680	766800	0
1	4692	768600	1
1	4695	769500	0
1	4699	769500	1
1	4702	770400	0
1	4714	772200	1
1	4717	773100	0
1	4721	773100	1
1	4724	774000	0
1	4736	775800	1
1	4739	776700	0
1	4743	776700	1
1	4746	777600	0
1	4758	779400	1
1	4761	780300	0
1	4765	780300	1
1	4768	781200	0
1	4780	783000	1
1	4783	783900	0
1	4787	783900	1
1	4790	784800	0
1	4802	786600	1
1	4805	787500	0
1	4809	787500	1
1	4812	788400	0
1	4824	790200	1
1	4827	791100	0
1	4831	791100	1
1	4834	792000	0
1	4846	793800	1
1	4849	794700	0
1	4853	794700	1
1	4856	795600	0
1	4868	797400	1
1	4871	798300	0
1	4875	798300	1
1	4878	799200	0
1	4890	801000	1
1	4893	801900	0
1	4897	801900	1
1	4900	802800	0
1	4912	804600	1
1	4915	805500	0
1	4919	805500	1
1	4922	806400	0
1	4934	808200	1
1	4937	809100	0
1	4941	809100	1
1	4944	810000	0
1	4956	811800	1
1	4959	812700	0
1	4963	812700	1
1	4966	813600	0
1	4978	815400	1
1	4981	816300	0
1	4985	816300	1
1	4988	817200	0
1	5000	819000	1
1	5003	819900	0
1	5007	819900	1
1	5010	820800	0
1	5022	822600	1
1	5025	823500	0
1	5029	823500	1
1	5032	824400	0
1	5044	826200	1
1	5047	827100	0
1	5051	827100	1
1	5054	828000	0
1	5066	829800	1
1	5069	830700	0
1	5073	830700	1
1	5076	831600	0
1	5088	833400	1
1	5091	834300	0
1	5095	834300	1
1	5098	835200	0
1	5110	837000	1
1	5113	837900	0
1	5117	837900	1
1	5120	838800	0
1	5132	840600	1
1	5135	841500	0
1	5139	841500	1
1	5142	842400	0
1	5154	844200	1
1	5157	845100	0
1	5161	845100	1
1	5164	846000	0
1	5176	847800	1
1	5179	848700	0
1	5183	848700	1
1	5186	849600	0
1	5198	851400	1
1	5201	852300	0
1	5205	852300	1
1	5208	853200	0
1	5220	855000	1
1	5223	855900	0
1	5227	855900	1
1	5230	856800	0
1	5242	858600	1
1	5245	859500	0
1	5249	859500	1
1	5252	860400	0
1	5264	862200	1
1	5267	863100	0
1	5271	863100	1
1	5274	864000	0
1	5286	865800	1
1	5289	866700	0
1	5293	866700	1
1	5296	867600	0
1	5308	869400	1
1	5311	870300	0
1	5315	870300	1
1	5318	871200	0
1	5330	873000	1
1	5333	873900	0
1	5337	873900	1
1	5340	874800	0
1	5352	876600	1
1	5355	877500	0
1	5359	877500	1
1	5362	878400	0
1	5374	880200	1
1	5377	881100	0
1	5381	881100	1
1	5384	882000	0
1	5396	883800	1
1	5399	884700	0
1	5403	884700	1
1	5406	885600	0
1	5418	887400	1
1	5421	888300	0
1	5425	888300	1
1	5428	889200	0
1	5440	891000	1
1	5443	891900	0
1	5447	891900	1
1	5450	892800	0
1	5462	894600	1
1	5465	895500	0
1	5469	895500	1
1	5472	896400	0
1	5484	898200	1
1	5487	899100	0
1	5491	899100	1
1	5494	900000	0
1	5506	901800	1
1	5509	902700	0
1	5513	902700	1
1	5516	903600	0
1	5528	905400	1
1	5531	906300	0
1	5535	906300	1
1	5538	907200	0
1	5550	909000	1
1	5553	909900	0
1	5557	909900	1
1	5560	910800	0
1	5572	912600	1
1	5575	913500	0
1	5579	913500	1
1	5582	914400	0
1	5594	916200	1
1	5597	917100	0
1	5601	917100	1
1	5604	918000	0
1	5616	919800	1
1	5619	920700	0
1	5623	920700	1
1	5626	921600	0
1	5638	923400	1
1	5641	924300	0
1	5645	924300	1
1	5648	925200	0
1	5660	927000	1
1	5663	927900	0
1	5667	927900	1
1	5670	928800	0
1	5682	930600	1
1	5685	931500	0
1	5689	931500	1
1	5692	932400	0
1	5704	934200	1
1	5707	935100	0
1	5711	935100	1
1	5714	936000	0
1	5726	937800	1
1	5729	938700	0
1	5733	938700	1
1	5736	939600	0
1	5748	941400	1
1	5751	942300	0
1	5755	942300	1
1	5758	943200	0
1	5770	945000	1
1	5773	945900	0
1	5777	945900	1
1	5780	946800	0
1	5792	948600	1
1	5795	949500	0
1	5799	949500	1
1	5802	950400	0
1	5814	952200	1
1	5817	953100	0
1	5821	953100	1
1	5824	954000	0
1	5836	955800	1
1	5839	956700	0
1	5843	956700	1
1	5846	957600	0
1	5858	959400	1
1	5861	960300	0
1	5865	960300	1
1	5868	961200	0
1	5880	963000	1
1	5883	963900	0
1	5887	963900	1
1	5890	964800	0
1	5902	966600	1
1	5905	967500	0
1	5909	967500	1
1	5912	968400	0
1	5924	970200	1
1	5927	971100	0
1	5931	971100	1
1	5934	972000	0
1	5946	973800	1
1	5949	974700	0
1	5953	974700	1
1	5956	975600	0
1	5968	977400	1
1	5971	978300	0
1	5975	978300	1
1	5978	979200	0
1	5990	981000	1
1	5993	981900	0
1	5997	981900	1
1	6000	982800	0
1	6012	984600	1
1	6015	985500	0
1	6019	985500	1
1	6022	986400	0
1	6034	988200	1
1	6037	989100	0
1	6041	989100	1
1	6044	990000	0
1	6056	991800	1
1	6059	992700	0
1	6063	992700	1
1	6066	993600	0
1	6078	995400	1
1	6081	996300	0
1	6085	996300	1
1	6088	997200	0
1	6100	999000	1
1	6103	999900	0
1	6107	999900	1
1	6110	1000800	0
1	6122	1002600	1
1	6125	1003500	0
1	6129	1003500	1
1	6132	1004400	0
1	6144	1006200	1
1	6147	1007100	0
1	6151	1007100	1
1	6154	1008000	0
1	6166	1009800	1
1	6169	1010700	0
1	6173	1010700	1
1	6176	1011600	0
1	6188	1013400	1
1	6191	1014300	0
1	6195	1014300	1
1	6198	1015200	0
1	6210	1017000	1
1	6213	1017900	0
1	6217	1017900	1
1	6220	1018800	0
1	6232	1020600	1
1	6235	1021500	0
1	6239	1021500	1
1	6242	1022400	0
1	6254	1024200	1
1	6257	1025100	0
1	6261	1025100	1
1	6264	1026000	0
1	6276	1027800	1
1	6279	1028700	0
1	6283	1028700	1
1	6286	1029600	0
1	6298	1031400	1
1	6301	1032300	0
1	6305	1032300	1
1	6308	1033200	0
1	6320	1035000	1
1	6323	1035900	0
1	6327	1035900	1
1	6330	1036800	0
1	6342	1038600	1
1	6345	1039500	0
1	6349	1039500	1
1	6352	1040400	0
1	6364	1042200	1
1	6367	1043100	0
1	6371	1043100	1
1	6374	1044000	0
1	6386	1045800	1
1	6389	1046700	0
1	6393	1046700	1
1	6396	1047600	0
1	6408	1049400	1
1	6411	1050300	0
1	6415	1050300	1
1	6418	1051200	0
1	6430	1053000	1
1	6433	1053900	0
1	6437	1053900	1
1	6440	1054800	0
1	6452	1056600	1
1	6455	1057500	0
1	6459	1057500	1
1	6462	1058400	0
1	6474	1060200	1
1	6477	1061100	0
1	6481	1061100	1
1	6484	1062000	0
1	6496	1063800	1
1	6499	1064700	0
1	6503	1064700	1
1	6506	1065600	0
1	6518	1067400	1
1	6521	1068300	0
1	6525	1068300	1
1	6528	1069200	0
1	6540	1071000	1
1	6543	1071900	0
1	6547	1071900	1
1	6550	1072800	0
1	6562	1074600	1
1	6565	1075500	0
1	6569	1075500	1
1	6572	1076400	0
1	6584	1078200	1
1	6587	1079100	0
1	6591	1079100	1
1	6594	1080000	0
1	6606	1081800	1
1	6609	1082700	0
1	6613	1082700	1
1	6616	1083600	0
1	6628	1085400	1
1	6631	1086300	0
1	6635	1086300	1
1	6638	1087200	0
1	6650	1089000	1
1	6653	1089900	0
1	6657	1089900	1
1	6660	1090800	0
1	6672	1092600	1
1	6675	1093500	0
1	6679	1093500	1
1	6682	1094400	0
1	6694	1096200	1
1	6697	1097100	0
1	6701	1097100	1
1	6704	1098000	0
1	6716	1099800	1
1	6719	1100700	0
1	6723	1100700	1
1	6726	1101600	0
1	6738	1103400	1
1	6741	1104300	0
1	6745	1104300	1
1	6748	1105200	0
1	6760	1107000	1
1	6763	1107900	0
1	6767	1107900	1
1	6770	1108800	0
1	6782	1110600	1
1	6785	1111500	0
1	6789	1111500	1
1	6792	1112400	0
1	6804	1114200	1
1	6807	1115100	0
1	6811	1115100	1
1	6814	1116000	0
1	6826	1117800	1
1	6829	1118700	0
1	6833	1118700	1
1	6836	1119600	0
1	6848	1121400	1
1	6851	1122300	0
1	6855	1122300	1
1	6858	1123200	0
1	6870	1125000	1
1	6873	1125900	0
1	6877	1125900	1
1	6880	1126800	0
1	6892	1128600	1
1	6895	1129500	0
1	6899	1129500	1
1	6902	1130400	0
1	6914	1132200	1
1	6917	1133100	0
1	6921	1133100	1
1	6924	1134000	0
1	6936	1135800	1
1	6939	1136700	0
1	6943	1136700	1
1	6946	1137600	0
1	6958	1139400	1
1	6961	1140300	0
1	6965	1140300	1
1	6968	1141200	0
1	6980	1143000	1
1	6983	1143900	0
1	6987	1143900	1
1	6990	1144800	0
1	7002	1146600	1
1	7005	1147500	0
1	7009	1147500	1
1	7012	1148400	0
1	7024	1150200	1
1	7027	1151100	0
1	7031	1151100	1
1	7034	1152000	0
1	7046	1153800	1
1	7049	1154700	0
1	7053	1154700	1
1	7056	1155600	0
1	7068	1157400	1
1	7071	1158300	0
1	7075	1158300	1
1	7078	1159200	0
1	7090	1161000	1
1	7093	1161900	0
1	7097	1161900	1
1	7100	1162800	0
1	7112	1164600	1
1	7115	1165500	0
1	7119	1165500	1
1	7122	1166400	0
1	7134	1168200	1
1	7137	1169100	0
1	7141	1169100	1
1	7144	1170000	0
1	7156	1171800	1
1	7159	1172700	0
1	7163	1172700	1
1	7166	1173600	0
1	7178	1175400	1
1	7181	1176300	0
1	7185	1176300	1
1	7188	1177200	0
1	7200	1179000	1
1	7203	1179900	0
1	7207	1179900	1
1	7210	1180800	0
1	7222	1182600	1
1	7225	1183500	0
1	7229	1183500	1
1	7232	1184400	0
1	7244	1186200	1
1	7247	1187100	0
1	7251	1187100	1
1	7254	1188000	0
1	7266	1189800	1
1	7269	1190700	0
1	7273	1190700	1
1	7276	1191600	0
1	7288	1193400	1
1	7291	1194300	0
1	7295	1194300	1
1	7298	1195200	0
1	7310	1197000	1
1	7313	1197900	0
1	7317	1197900	1
1	7320	1198800	0
1	7332	1200600	1
1	7335	1201500	0
1	7339	1201500	1
1	7342	1202400	0
1	7354	1204200	1
1	7357	1205100	0
1	7361	1205100	1
1	7364	1206000	0
1	7376	1207800	1
1	7379	1208700	0
1	7383	1208700	1
1	7386	1209600	0
1	7398	1211400	1
1	7401	1212300	0
1	7405	1212300	1
1	7408	1213200	0
1	7420	1215000	1
1	7423	1215900	0
1	7427	1215900	1
1	7430	1216800	0
1	7442	1218600	1
1	7445	1219500	0
1	7449	1219500	1
1	7452	1220400	0
1	7464	1222200	1
1	7467	1223100	0
1	7471	1223100	1
1	7474	1224000	0
1	7486	1225800	1
1	7489	1226700	0
1	7493	1226700	1
1	7496	1227600	0
1	7508	1229400	1
1	7511	1230300	0
1	7515	1230300	1
1	7518	1231200	0
1	7530	1233000	1
1	7533	1233900	0
1	7537	1233900	1
1	7540	1234800	0
1	7552	1236600	1
1	7555	1237500	0
1	7559	1237500	1
1	7562	1238400	0
1	7574	1240200	1
1	7577	1241100	0
1	7581	1241100	1
1	7584	1242000	0
1	7596	1243800	1
1	7599	1244700	0
1	7603	1244700	1
1	7606	1245600	0
1	7618	1247400	1
1	7621	1248300	0
1	7625	1248300	1
1	7628	1249200	0
1	7640	1251000	1
1	7643	1251900	0
1	7647	1251900	1
1	7650	1252800	0
1	7662	1254600	1
1	7665	1255500	0
1	7669	1255500	1
1	7672	1256400	0
1	7684	1258200	1
1	7687	1259100	0
1	7691	1259100	1
1	7694	1260000	0
1	7706	1261800	1
1	7709	1262700	0
1	7713	1262700	1
1	7716	1263600	0
1	7728	1265400	1
1	7731	1266300	0
1	7735	1266300	1
1	7738	1267200	0
1	7750	1269000	1
1	7753	1269900	0
1	7757	1269900	1
1	7760	1270800	0
1	7772	1272600	1
1	7775	1273500	0
1	7779	1273500	1
1	7782	1274400	0
1	7794	1276200	1
1	7797	1277100	0
1	7801	1277100	1
1	7804	1278000	0
1	7816	1279800	1
1	7819	1280700	0
1	7823	1280700	1
1	7826	1281600	0
1	7838	1283400	1
1	7841	1284300	0
1	7845	1284300	1
1	7848	1285200	0
1	7860	1287000	1
1	7863	1287900	0
1	7867	1287900	1
1	7870	1288800	0
1	7882	1290600	1
1	7885	1291500	0
1	7889	1291500	1
1	7892	1292400	0
1	7904	1294200	1
1	7907	1295100	0
1	7911	1295100	1
1	7914	1296000	0
1	7926	1297800	1
1	7929	1298700	0
1	7933	1298700	1
1	7936	1299600	0
1	7948	1301400	1
1	7951	1302300	0
1	7955	1302300	1
1	7958	1303200	0
1	7970	1305000	1
1	7973	1305900	0
1	7977	1305900	1
1	7980	1306800	0
1	7992	1308600	1
1	7995	1309500	0
1	7999	1309500	1
1	8002	1310400	0
1	8014	1312200	1
1	8017	1313100	0
1	8021	1313100	1
1	8024	1314000	0
1	8036	1315800	1
1	8039	1316700	0
1	8043	1316700	1
1	8046	1317600	0
1	8058	1319400	1
1	8061	1320300	0
1	8065	1320300	1
1	8068	1321200	0
1	8080	1323000	1
1	8083	1323900	0
1	8087	1323900	1
1	8090	1324800	0
1	8102	1326600	1
1	8105	1327500	0
1	8109	1327500	1
1	8112	1328400	0
1	8124	1330200	1
1	8127	1331100	0
1	8131	1331100	1
1	8134	1332000	0
1	8146	1333800	1
1	8149	1334700	0
1	8153	1334700	1
1	8156	1335600	0
1	8168	1337400	1
1	8171	1338300	0
1	8175	1338300	1
1	8178	1339200	0
1	8190	1341000	1
1	8193	1341900	0
1	8197	1341900	1
1	8200	1342800	0
1	8212	1344600	1
1	8215	1345500	0
1	8219	1345500	1
1	8222	1346400	0
1	8234	1348200	1
1	8237	1349100	0
1	8241	1349100	1
1	8244	1350000	0
1	8256	1351800	1
1	8259	1352700	0
1	8263	1352700	1
1	8266	1353600	0
1	8278	1355400	1
1	8281	1356300	0
1	8285	1356300	1
1	8288	1357200	0
1	8300	1359000	1
1	8303	1359900	0
1	8307	1359900	1
1	8310	1360800	0
1	8322	1362600	1
1	8325	1363500	0
1	8329	1363500	1
1	8332	1364400	0
1	8344	1366200	1
1	8347	1367100	0
1	8351	1367100	1
1	8354	1368000	0
1	8366	1369800	1
1	8369	1370700	0
1	8373	1370700	1
1	8376	1371600	0
1	8388	1373400	1
1	8391	1374300	0
1	8395	1374300	1
1	8398	1375200	0
1	8410	1377000	1
1	8413	1377900	0
1	8417	1377900	1
1	8420	1378800	0
1	8432	1380600	1
1	8435	1381500	0
1	8439	1381500	1
1	8442	1382400	0
1	8454	1384200	1
1	8457	1385100	0
1	8461	1385100	1
1	8464	1386000	0
1	8476	1387800	1
1	8479	1388700	0
1	8483	1388700	1
1	8486	1389600	0
1	8498	1391400	1
1	8501	1392300	0
1	8505	1392300	1
1	8508	1393200	0
1	8520	1395000	1
1	8523	1395900	0
1	8527	1395900	1
1	8530	1396800	0
1	8542	1398600	1
1	8545	1399500	0
1	8549	1399500	1
1	8552	1400400	0
1	8564	1402200	1
1	8567	1403100	0
1	8571	1403100	1
1	8574	1404000	0
1	8586	1405800	1
1	8589	1406700	0
1	8593	1406700	1
1	8596	1407600	0
1	8608	1409400	1
1	8611	1410300	0
1	8615	1410300	1
1	8618	1411200	0
1	8630	1413000	1
1	8633	1413900	0
1	8637	1413900	1
1	8640	1414800	0
1	8652	1416600	1
1	8655	1417500	0
1	8659	1417500	1
1	8662	1418400	0
1	8674	1420200	1
1	8677	1421100	0
1	8681	1421100	1
1	8684	1422000	0
1	8696	1423800	1
1	8699	1424700	0
1	8703	1424700	1
1	8706	1425600	0
1	8718	1427400	1
1	8721	1428300	0
1	8725	1428300	1
1	8728	1429200	0
1	8740	1431000	1
1	8743	1431900	0
1	8747	1431900	1
1	8750	1432800	0
1	8762	1434600	1
1	8765	1435500	0
1	8769	1435500	1
1	8772	1436400	0
1	8784	1438200	1
1	8787	1439100	0
1	8791	1439100	1
1	8794	1440000	0
1	8806	1441800	1
1	8809	1442700	0
1	8813	1442700	1
1	8816	1443600	0
1	8828	1445400	1
1	8831	1446300	0
1	8835	1446300	1
1	8838	1447200	0
1	8850	1449000	1
1	8853	1449900	0
1	8857	1449900	1
1	8860	1450800	0
1	8872	1452600	1
1	8875	1453500	0
1	8879	1453500	1
1	8882	1454400	0
1	8894	1456200	1
1	8897	1457100	0
1	8901	1457100	1
1	8904	1458000	0
1	8916	1459800	1
1	8919	1460700	0
1	8923	1460700	1
1	8926	1461600	0
1	8938	1463400	1
1	8941	1464300	0
1	8945	1464300	1
1	8948	1465200	0
1	8960	1467000	1
1	8963	1467900	0
1	8967	1467900	1
1	8970	1468800	0
1	8982	1470600	1
1	8985	1471500	0
1	8989	1471500	1
1	8992	1472400	0
1	9004	1474200	1
1	9007	1475100	0
1	9011	1475100	1
1	9014	1476000	0
1	9026	1477800	1
1	9029	1478700	0
1	9033	1478700	1
1	9036	1479600	0
1	9048	1481400	1
1	9051	1482300	0
1	9055	1482300	1
1	9058	1483200	0
1	9070	1485000	1
1	9073	1485900	0
1	9077	1485900	1
1	9080	1486800	0
1	9092	1488600	1
1	9095	1489500	0
1	9099	1489500	1
1	9102	1490400	0
1	9114	1492200	1
1	9117	1493100	0
1	9121	1493100	1
1	9124	1494000	0
1	9136	1495800	1
1	9139	1496700	0
1	9143	1496700	1
1	9146	1497600	0
1	9158	1499400	1
1	9161	1500300	0
1	9165	1500300	1
1	9168	1501200	0
1	9180	1503000	1
1	9183	1503900	0
1	9187	1503900	1
1	9190	1504800	0
1	9202	1506600	1
1	9205	1507500	0
1	9209	1507500	1
1	9212	1508400	0
1	9224	1510200	1
1	9227	1511100	0
1	9231	1511100	1
1	9234	1512000	0
1	9246	1513800	1
1	9249	1514700	0
1	9253	1514700	1
1	9256	1515600	0
1	9268	1517400	1
1	9271	1518300	0
1	9275	1518300	1
1	9278	1519200	0
1	9290	1521000	1
1	9293	1521900	0
1	9297	1521900	1
1	9300	1522800	0
1	9312	1524600	1
1	9315	1525500	0
1	9319	1525500	1
1	9322	1526400	0
1	9334	1528200	1
1	9337	1529100	0
1	9341	1529100	1
1	9344	1530000	0
1	9356	1531800	1
1	9359	1532700	0
1	9363	1532700	1
1	9366	1533600	0
1	9378	1535400	1
1	9381	1536300	0
1	9385	1536300	1
1	9388	1537200	0
1	9400	1539000	1
1	9403	1539900	0
1	9407	1539900	1
1	9410	1540800	0
1	9422	1542600	1
1	9425	1543500	0
1	9429	1543500	1
1	9432	1544400	0
1	9444	1546200	1
1	9447	1547100	0
1	9451	1547100	1
1	9454	1548000	0
1	9466	1549800	1
1	9469	1550700	0
1	9473	1550700	1
1	9476	1551600	0
1	9488	1553400	1
1	9491	1554300	0
1	9495	1554300	1
1	9498	1555200	0
1	9510	1557000	1
1	9513	1557900	0
1	9517	1557900	1
1	9520	1558800	0
1	9532	1560600	1
1	9535	1561500	0
1	9539	1561500	1
1	9542	1562400	0
1	9554	1564200	1
1	9557	1565100	0
1	9561	1565100	1
1	9564	1566000	0
1	9576	1567800	1
1	9579	1568700	0
1	9583	1568700	1
1	9586	1569600	0
1	9598	1571400	1
1	9601	1572300	0
1	9605	1572300	1
1	9608	1573200	0
1	9620	1575000	1
1	9623	1575900	0
1	9627	1575900	1
1	9630	1576800	0
1	9642	1578600	1
1	9645	1579500	0
1	9649	1579500	1
1	9652	1580400	0
1	9664	1582200	1
1	9667	1583100	0
1	9671	1583100	1
1	9674	1584000	0
1	9686	1585800	1
1	9689	1586700	0
1	9693	1586700	1
1	9696	1587600	0
1	9708	1589400	1
1	9711	1590300	0
1	9715	1590300	1
1	9718	1591200	0
1	9730	1593000	1
1	9733	1593900	0
1	9737	1593900	1
1	9740	1594800	0
1	9752	1596600	1
1	9755	1597500	0
1	9759	1597500	1
1	9762	1598400	0
1	9774	1600200	1
1	9777	1601100	0
1	9781	1601100	1
1	9784	1602000	0
1	9796	1603800	1
1	9799	1604700	0
1	9803	1604700	1
1	9806	1605600	0
1	9818	1607400	1
1	9821	1608300	0
1	9825	1608300	1
1	9828	1609200	0
1	9840	1611000	1
1	9843	1611900	0
1	9847	1611900	1
1	9850	1612800	0
1	9862	1614600	1
1	9865	1615500	0
1	9869	1615500	1
1	9872	1616400	0
1	9884	1618200	1
1	9887	1619100	0
1	9891	1619100	1
1	9894	1620000	0
1	9906	1621800	1
1	9909	1622700	0
1	9913	1622700	1
1	9916	1623600	0
1	9928	1625400	1
1	9931	1626300	0
1	9935	1626300	1
1	9938	1627200	0
1	9950	1629000	1
1	9953	1629900	0
1	9957	1629900	1
1	9960	1630800	0
1	9972	1632600	1
1	9975	1633500	0
1	9979	1633500	1
1	9982	1634400	0
1	9994	1636200	1
1	9997	1637100	0
1	10001	1637100	1
1	10004	1638000	0
1	10016	1639800	1
1	10019	1640700	0
1	10023	1640700	1
1	10026	1641600	0
1	10038	1643400	1
1	10041	1644300	0
1	10045	1644300	1
1	10048	1645200	0
1	10060	1647000	1
1	10063	1647900	0
1	10067	1647900	1
1	10070	1648800	0
1	10082	1650600	1
1	10085	1651500	0
1	10089	1651500	1
1	10092	1652400	0
1	10104	1654200	1
1	10107	1655100	0
1	10111	1655100	1
1	10114	1656000	0
1	10126	1657800	1
1	10129	1658700	0
1	10133	1658700	1
1	10136	1659600	0
1	10148	1661400	1
1	10151	1662300	0
1	10155	1662300	1
1	10158	1663200	0
1	10170	1665000	1
1	10173	1665900	0
1	10177	1665900	1
1	10180	1666800	0
1	10192	1668600	1
1	10195	1669500	0
1	10199	1669500	1
1	10202	1670400	0
1	10214	1672200	1
1	10217	1673100	0
1	10221	1673100	1
1	10224	1674000	0
1	10236	1675800	1
1	10239	1676700	0
1	10243	1676700	1
1	10246	1677600	0
1	10258	1679400	1
1	10261	1680300	0
1	10265	1680300	1
1	10268	1681200	0
1	10280	1683000	1
1	10283	1683900	0
1	10287	1683900	1
1	10290	1684800	0
1	10302	1686600	1
1	10305	1687500	0
1	10309	1687500	1
1	10312	1688400	0
1	10324	1690200	1
1	10327	1691100	0
1	10331	1691100	1
1	10334	1692000	0
1	10346	1693800	1
1	10349	1694700	0
1	10353	1694700	1
1	10356	1695600	0
1	10368	1697400	1
1	10371	1698300	0
1	10375	1698300	1
1	10378	1699200	0
1	10390	1701000	1
1	10393	1701900	0
1	10397	1701900	1
1	10400	1702800	0
1	10412	1704600	1
1	10415	1705500	0
1	10419	1705500	1
1	10422	1706400	0
1	10434	1708200	1
1	10437	1709100	0
1	10441	1709100	1
1	10444	1710000	0
1	10456	1711800	1
1	10459	1712700	0
1	10463	1712700	1
1	10466	1713600	0
1	10478	1715400	1
1	10481	1716300	0
1	10485	1716300	1
1	10488	1717200	0
1	10500	1719000	1
1	10503	1719900	0
1	10507	1719900	1
1	10510	1720800	0
1	10522	1722600	1
1	10525	1723500	0
1	10529	1723500	1
1	10532	1724400	0
1	10544	1726200	1
1	10547	1727100	0
1	10551	1727100	1
1	10554	1728000	0
1	10566	1729800	1
1	10569	1730700	0
1	10573	1730700	1
1	10576	1731600	0
1	10588	1733400	1
1	10591	1734300	0
1	10595	1734300	1
1	10598	1735200	0
1	10610	1737000	1
1	10613	1737900	0
1	10617	1737900	1
1	10620	1738800	0
1	10632	1740600	1
1	10635	1741500	0
1	10639	1741500	1
1	10642	1742400	0
1	10654	1744200	1
1	10657	1745100	0
1	10661	1745100	1
1	10664	1746000	0
1	10676	1747800	1
1	10679	1748700	0
1	10683	1748700	1
1	10686	1749600	0
1	10698	1751400	1
1	10701	1752300	0
1	10705	1752300	1
1	10708	1753200	0
1	10720	1755000	1
1	10723	1755900	0
1	10727	1755900	1
1	10730	1756800	0
1	10742	1758600	1
1	10745	1759500	0
1	10749	1759500	1
1	10752	1760400	0
1	10764	1762200	1
1	10767	1763100	0
1	10771	1763100	1
1	10774	1764000	0
1	10786	1765800	1
1	10789	1766700	0
1	10793	1766700	1
1	10796	1767600	0
1	10808	1769400	1
1	10811	1770300	0
1	10815	1770300	1
1	10818	1771200	0
1	10830	1773000	1
1	10833	1773900	0
1	10837	1773900	1
1	10840	1774800	0
1	10852	1776600	1
1	10855	1777500	0
1	10859	1777500	1
1	10862	1778400	0
1	10874	1780200	1
1	10877	1781100	0
1	10881	1781100	1
1	10884	1782000	0
1	10896	1783800	1
1	10899	1784700	0
1	10903	1784700	1
1	10906	1785600	0
1	10918	1787400	1
1	10921	1788300	0
1	10925	1788300	1
1	10928	1789200	0
1	10940	1791000	1
1	10943	1791900	0
1	10947	1791900	1
1	10950	1792800	0
1	10962	1794600	1
1	10965	1795500	0
1	10969	1795500	1
1	10972	1796400	0
1	10984	1798200	1
1	10987	1799100	0
1	10991	1799100	1
1	10994	1800000	0
1	11006	1801800	1
1	11009	1802700	0
1	11013	1802700	1
1	11016	1803600	0
1	11028	1805400	1
1	11031	1806300	0
1	11035	1806300	1
1	11038	1807200	0
1	11050	1809000	1
1	11053	1809900	0
1	11057	1809900	1
1	11060	1810800	0
1	11072	1812600	1
1	11075	1813500	0
1	11079	1813500	1
1	11082	1814400	0
1	11094	1816200	1
1	11097	1817100	0
1	11101	1817100	1
1	11104	1818000	0
1	11116	1819800	1
1	11119	1820700	0
1	11123	1820700	1
1	11126	1821600	0
1	11138	1823400	1
1	11141	1824300	0
1	11145	1824300	1
1	11148	1825200	0
1	11160	1827000	1
1	11163	1827900	0
1	11167	1827900	1
1	11170	1828800	0
1	11182	1830600	1
1	11185	1831500	0
1	11189	1831500	1
1	11192	1832400	0
1	11204	1834200	1
1	11207	1835100	0
1	11211	1835100	1
1	11214	1836000	0
1	11226	1837800	1
1	11229	1838700	0
1	11233	1838700	1
1	11236	1839600	0
1	11248	1841400	1
1	11251	1842300	0
1	11255	1842300	1
1	11258	1843200	0
1	11270	1845000	1
1	11273	1845900	0
1	11277	1845900	1
1	11280	1846800	0
1	11292	1848600	1
1	11295	1849500	0
1	11299	1849500	1
1	11302	1850400	0
1	11314	1852200	1
1	11317	1853100	0
1	11321	1853100	1
1	11324	1854000	0
1	11336	1855800	1
1	11339	1856700	0
1	11343	1856700	1
1	11346	1857600	0
1	11358	1859400	1
1	11361	1860300	0
1	11365	1860300	1
1	11368	1861200	0
1	11380	1863000	1
1	11383	1863900	0
1	11387	1863900	1
1	11390	1864800	0
1	11402	1866600	1
1	11405	1867500	0
1	11409	1867500	1
1	11412	1868400	0
1	11424	1870200	1
1	11427	1871100	0
1	11431	1871100	1
1	11434	1872000	0
1	11446	1873800	1
1	11449	1874700	0
1	11453	1874700	1
1	11456	1875600	0
1	11468	1877400	1
1	11471	1878300	0
1	11475	1878300	1
1	11478	1879200	0
1	11490	1881000	1
1	11493	1881900	0
1	11497	1881900	1
1	11500	1882800	0
1	11512	1884600	1
1	11515	1885500	0
1	11519	1885500	1
1	11522	1886400	0
1	11534	1888200	1
1	11537	1889100	0
1	11541	1889100	1
1	11544	1890000	0
1	11556	1891800	1
1	11559	1892700	0
1	11563	1892700	1
1	11566	1893600	0
1	11578	1895400	1
1	11581	1896300	0
1	11585	1896300	1
1	11588	1897200	0
1	11600	1899000	1
1	11603	1899900	0
1	11607	1899900	1
1	11610	1900800	0
1	11622	1902600	1
1	11625	1903500	0
1	11629	1903500	1
1	11632	1904400	0
1	11644	1906200	1
1	11647	1907100	0
1	11651	1907100	1
1	11654	1908000	0
1	11666	1909800	1
1	11669	1910700	0
1	11673	1910700	1
1	11676	1911600	0
1	11688	1913400	1
1	11691	1914300	0
1	11695	1914300	1
1	11698	1915200	0
1	11710	1917000	1
1	11713	1917900	0
1	11717	1917900	1
1	11720	1918800	0
1	11732	1920600	1
1	11735	1921500	0
1	11739	1921500	1
1	11742	1922400	0
1	11754	1924200	1
1	11757	1925100	0
1	11761	1925100	1
1	11764	1926000	0
1	11776	1927800	1
1	11779	1928700	0
1	11783	1928700	1
1	11786	1929600	0
1	11798	1931400	1
1	11801	1932300	0
1	11805	1932300	1
1	11808	1933200	0
1	11820	1935000	1
1	11823	1935900	0
1	11827	1935900	1
1	11830	1936800	0
1	11842	1938600	1
1	11845	1939500	0
1	11849	1939500	1
1	11852	1940400	0
1	11864	1942200	1
1	11867	1943100	0
1	11871	1943100	1
1	11874	1944000	0
1	11886	1945800	1
1	11889	1946700	0
1	11893	1946700	1
1	11896	1947600	0
1	11908	1949400	1
1	11911	1950300	0
1	11915	1950300	1
1	11918	1951200	0
1	11930	1953000	1
1	11933	1953900	0
1	11937	1953900	1
1	11940	1954800	0
1	11952	1956600	1
1	11955	1957500	0
1	11959	1957500	1
1	11962	1958400	0
1	11974	1960200	1
1	11977	1961100	0
1	11981	1961100	1
1	11984	1962000	0
1	11996	1963800	1
1	11999	1964700	0
1	12003	1964700	1
1	12006	1965600	0
1	12018	1967400	1
1	12021	1968300	0
1	12025	1968300	1
1	12028	1969200	0
1	12040	1971000	1
1	12043	1971900	0
1	12047	1971900	1
1	12050	1972800	0
1	12062	1974600	1
1	12065	1975500	0
1	12069	1975500	1
1	12072	1976400	0
1	12084	1978200	1
1	12087	1979100	0
1	12091	1979100	1
1	12094	1980000	0
1	12106	1981800	1
1	12109	1982700	0
1	12113	1982700	1
1	12116	1983600	0
1	12128	1985400	1
1	12131	1986300	0
1	12135	1986300	1
1	12138	1987200	0
1	12150	1989000	1
1	12153	1989900	0
1	12157	1989900	1
1	12160	1990800	0
1	12172	1992600	1
1	12175	1993500	0
1	12179	1993500	1
1	12182	1994400	0
1	12194	1996200	1
1	12197	1997100	0
1	12201	1997100	1
1	12204	1998000	0
1	12216	1999800	1
1	12219	2000700	0
1	12223	2000700	1
1	12226	2001600	0
1	12238	2003400	1
1	12241	2004300	0
1	12245	2004300	1
1	12248	2005200	0
1	12260	2007000	1
1	12263	2007900	0
1	12267	2007900	1
1	12270	2008800	0
1	12282	2010600	1
1	12285	2011500	0
1	12289	2011500	1
1	12292	2012400	0
1	12304	2014200	1
1	12307	2015100	0
1	12311	2015100	1
1	12314	2016000	0
1	12326	2017800	1
1	12329	2018700	0
1	12333	2018700	1
1	12336	2019600	0
1	12348	2021400	1
1	12351	2022300	0
1	12355	2022300	1
1	12358	2023200	0
1	12370	2025000	1
1	12373	2025900	0
1	12377	2025900	1
1	12380	2026800	0
1	12392	2028600	1
1	12395	2029500	0
1	12399	2029500	1
1	12402	2030400	0
1	12414	2032200	1
1	12417	2033100	0
1	12421	2033100	1
1	12424	2034000	0
1	12436	2035800	1
1	12439	2036700	0
1	12443	2036700	1
1	12446	2037600	0
1	12458	2039400	1
1	12461	2040300	0
1	12465	2040300	1
1	12468	2041200	0
1	12480	2043000	1
1	12483	2043900	0
1	12487	2043900	1
1	12490	2044800	0
1	12502	2046600	1
1	12505	2047500	0
1	12509	2047500	1
1	12512	2048400	0
1	12524	2050200	1
1	12527	2051100	0
1	12531	2051100	1
1	12534	2052000	0
1	12546	2053800	1
1	12549	2054700	0
1	12553	2054700	1
1	12556	2055600	0
1	12568	2057400	1
1	12571	2058300	0
1	12575	2058300	1
1	12578	2059200	0
1	12590	2061000	1
1	12593	2061900	0
1	12597	2061900	1
1	12600	2062800	0
1	12612	2064600	1
1	12615	2065500	0
1	12619	2065500	1
1	12622	2066400	0
1	12634	2068200	1
1	12637	2069100	0
1	12641	2069100	1
1	12644	2070000	0
1	12656	2071800	1
1	12659	2072700	0
1	12663	2072700	1
1	12666	2073600	0
1	12678	2075400	1
1	12681	2076300	0
1	12685	2076300	1
1	12688	2077200	0
1	12700	2079000	1
1	12703	2079900	0
1	12707	2079900	1
1	12710	2080800	0
1	12722	2082600	1
1	12725	2083500	0
1	12729	2083500	1
1	12732	2084400	0
1	12744	2086200	1
1	12747	2087100	0
1	12751	2087100	1
1	12754	2088000	0
1	12766	2089800	1
1	12769	2090700	0
1	12773	2090700	1
1	12776	2091600	0
1	12788	2093400	1
1	12791	2094300	0
1	12795	2094300	1
1	12798	2095200	0
1	12810	2097000	1
1	12813	2097900	0
1	12817	2097900	1
1	12820	2098800	0
1	12832	2100600	1
1	12835	2101500	0
1	12839	2101500	1
1	12842	2102400	0
1	12854	2104200	1
1	12857	2105100	0
1	12861	2105100	1
1	12864	2106000	0
1	12876	2107800	1
1	12879	2108700	0
1	12883	2108700	1
1	12886	2109600	0
1	12898	2111400	1
1	12901	2112300	0
1	12905	2112300	1
1	12908	2113200	0
1	12920	2115000	1
1	12923	2115900	0
1	12927	2115900	1
1	12930	2116800	0
1	12942	2118600	1
1	12945	2119500	0
1	12949	2119500	1
1	12952	2120400	0
1	12964	2122200	1
1	12967	2123100	0
1	12971	2123100	1
1	12974	2124000	0
1	12986	2125800	1
1	12989	2126700	0
1	12993	2126700	1
1	12996	2127600	0
1	13008	2129400	1
1	13011	2130300	0
1	13015	2130300	1
1	13018	2131200	0
1	13030	2133000	1
1	13033	2133900	0
1	13037	2133900	1
1	13040	2134800	0
1	13052	2136600	1
1	13055	2137500	0
1	13059	2137500	1
1	13062	2138400	0
1	13074	2140200	1
1	13077	2141100	0
1	13081	2141100	1
1	13084	2142000	0
1	13096	2143800	1
1	13099	2144700	0
1	13103	2144700	1
1	13106	2145600	0
1	13118	2147400	1
1	13121	2148300	0
1	13125	2148300	1
1	13128	2149200	0
1	13140	2151000	1
1	13143	2151900	0
1	13147	2151900	1
1	13150	2152800	0
1	13162	2154600	1
1	13165	2155500	0
1	13169	2155500	1
1	13172	2156400	0
1	13184	2158200	1
1	13187	2159100	0
1	13191	2159100	1
1	13194	2160000	0
1	13206	2161800	1
1	13209	2162700	0
1	13213	2162700	1
1	13216	2163600	0
1	13228	2165400	1
1	13231	2166300	0
1	13235	2166300	1
1	13238	2167200	0
1	13250	2169000	1
1	13253	2169900	0
1	13257	2169900	1
1	13260	2170800	0
1	13272	2172600	1
1	13275	2173500	0
1	13279	2173500	1
1	13282	2174400	0
1	13294	2176200	1
1	13297	2177100	0
1	13301	2177100	1
1	13304	2178000	0
1	13316	2179800	1
1	13319	2180700	0
1	13323	2180700	1
1	13326	2181600	0
1	13338	2183400	1
1	13341	2184300	0
1	13345	2184300	1
1	13348	2185200	0
1	13360	2187000	1
1	13363	2187900	0
1	13367	2187900	1
1	13370	2188800	0
1	13382	2190600	1
1	13385	2191500	0
1	13389	2191500	1
1	13392	2192400	0
1	13404	2194200	1
1	13407	2195100	0
1	13411	2195100	1
1	13414	2196000	0
1	13426	2197800	1
1	13429	2198700	0
1	13433	2198700	1
1	13436	2199600	0
1	13448	2201400	1
1	13451	2202300	0
1	13455	2202300	1
1	13458	2203200	0
1	13470	2205000	1
1	13473	2205900	0
1	13477	2205900	1
1	13480	2206800	0
1	13492	2208600	1
1	13495	2209500	0
1	13499	2209500	1
1	13502	2210400	0
1	13514	2212200	1
1	13517	2213100	0
1	13521	2213100	1
1	13524	2214000	0
1	13536	2215800	1
1	13539	2216700	0
1	13543	2216700	1
1	13546	2217600	0
1	13558	2219400	1
1	13561	2220300	0
1	13565	2220300	1
1	13568	2221200	0
1	13580	2223000	1
1	13583	2223900	0
1	13587	2223900	1
1	13590	2224800	0
1	13602	2226600	1
1	13605	2227500	0
1	13609	2227500	1
1	13612	2228400	0
1	13624	2230200	1
1	13627	2231100	0
1	13631	2231100	1
1	13634	2232000	0
1	13646	2233800	1
1	13649	2234700	0
1	13653	2234700	1
1	13656	2235600	0
1	13668	2237400	1
1	13671	2238300	0
1	13675	2238300	1
1	13678	2239200	0
1	13690	2241000	1
1	13693	2241900	0
1	13697	2241900	1
1	13700	2242800	0
1	13712	2244600	1
1	13715	2245500	0
1	13719	2245500	1
1	13722	2246400	0
1	13734	2248200	1
1	13737	2249100	0
1	13741	2249100	1
1	13744	2250000	0
1	13756	2251800	1
1	13759	2252700	0
1	13763	2252700	1
1	13766	2253600	0
1	13778	2255400	1
1	13781	2256300	0
1	13785	2256300	1
1	13788	2257200	0
1	13800	2259000	1
1	13803	2259900	0
1	13807	2259900	1
1	13810	2260800	0
1	13822	2262600	1
1	13825	2263500	0
1	13829	2263500	1
1	13832	2264400	0
1	13844	2266200	1
1	13847	2267100	0
1	13851	2267100	1
1	13854	2268000	0
1	13866	2269800	1
1	13869	2270700	0
1	13873	2270700	1
1	13876	2271600	0
1	13888	2273400	1
1	13891	2274300	0
1	13895	2274300	1
1	13898	2275200	0
1	13910	2277000	1
1	13913	2277900	0
1	13917	2277900	1
1	13920	2278800	0
1	13932	2280600	1
1	13935	2281500	0
1	13939	2281500	1
1	13942	2282400	0
1	13954	2284200	1
1	13957	2285100	0
1	13961	2285100	1
1	13964	2286000	0
1	13976	2287800	1
1	13979	2288700	0
1	13983	2288700	1
1	13986	2289600	0
1	13998	2291400	1
1	14001	2292300	0
1	14005	2292300	1
1	14008	2293200	0
1	14020	2295000	1
1	14023	2295900	0
1	14027	2295900	1
1	14030	2296800	0
1	14042	2298600	1
1	14045	2299500	0
1	14049	2299500	1
1	14052	2300400	0
1	14064	2302200	1
1	14067	2303100	0
1	14071	2303100	1
1	14074	2304000	0
1	14086	2305800	1
1	14089	2306700	0
1	14093	2306700	1
1	14096	2307600	0
1	14108	2309400	1
1	14111	2310300	0
1	14115	2310300	1
1	14118	2311200	0
1	14130	2313000	1
1	14133	2313900	0
1	14137	2313900	1
1	14140	2314800	0
1	14152	2316600	1
1	14155	2317500	0
1	14159	2317500	1
1	14162	2318400	0
1	14174	2320200	1
1	14177	2321100	0
1	14181	2321100	1
1	14184	2322000	0
1	14196	2323800	1
1	14199	2324700	0
1	14203	2324700	1
1	14206	2325600	0
1	14218	2327400	1
1	14221	2328300	0
1	14225	2328300	1
1	14228	2329200	0
1	14240	2331000	1
1	14243	2331900	0
1	14247	2331900	1
1	14250	2332800	0
[...]
2	3842	629100	0
2	3848	630000	0
2	3864	632700	0
2	3870	633600	0
2	3886	636300	0
2	3892	637200	0
2	3908	639900	0
2	3914	640800	0
2	3930	643500	0
2	3936	644400	0
2	3952	647100	0
2	3958	648000	0
2	3974	650700	0
2	3980	651600	0
2	3996	654300	0
2	4002	655200	0
2	4018	657900	0
2	4024	658800	0
2	4040	661500	0
2	4046	662400	0
2	4062	665100	0
2	4068	666000	0
2	4084	668700	0
2	4090	669600	0
2	4106	672300	0
2	4112	673200	0
2	4128	675900	0
2	4134	676800	0
2	4150	679500	0
2	4156	680400	0
2	4172	683100	0
2	4178	684000	0
2	4194	686700	0
2	4200	687600	0
2	4216	690300	0
2	4222	691200	0
2	4238	693900	0
2	4244	694800	0
2	4260	697500	0
2	4266	698400	0
2	4282	701100	0
2	4288	702000	0
2	4304	704700	0
2	4310	705600	0
2	4326	708300	0
2	4332	709200	0
2	4348	711900	0
2	4354	712800	0
2	4370	715500	0
2	4376	716400	0
2	4392	719100	0
2	4398	720000	0
2	4414	722700	0
2	4420	723600	0
2	4436	726300	0
2	4442	727200	0
2	4458	729900	0
2	4464	730800	0
2	4480	733500	0
2	4486	734400	0
2	4502	737100	0
2	4508	738000	0
2	4524	740700	0
2	4530	741600	0
2	4546	744300	0
2	4552	745200	0
2	4568	747900	0
2	4574	748800	0
2	4590	751500	0
2	4596	752400	0
2	4612	755100	0
2	4618	756000	0
2	4634	758700	0
2	4640	759600	0
2	4656	762300	0
2	4662	763200	0
2	4678	765900	0
2	4684	766800	0
2	4700	769500	0
2	4706	770400	0
2	4722	773100	0
2	4728	774000	0
2	4744	776700	0
2	4750	777600	0
2	4766	780300	0
2	4772	781200	0
2	4788	783900	0
2	4794	784800	0
2	4810	787500	0
2	4816	788400	0
2	4832	791100	0
2	4838	792000	0
2	4854	794700	0
2	4860	795600	0
2	4876	798300	0
2	4882	799200	0
2	4898	801900	0
2	4904	802800	0
2	4920	805500	0
2	4926	806400	0
2	4942	809100	0
2	4948	810000	0
2	4964	812700	0
2	4970	813600	0
2	4986	816300	0
2	4992	817200	0
2	5008	819900	0
2	5014	820800	0
2	5030	823500	0
2	5036	824400	0
2	5052	827100	0
2	5058	828000	0
2	5074	830700	0
2	5080	831600	0
2	5096	834300	0
2	5102	835200	0
2	5118	837900	0
2	5124	838800	0
2	5140	841500	0
2	5146	842400	0
2	5162	845100	0
2	5168	846000	0
2	5184	848700	0
2	5190	849600	0
2	5206	852300	0
2	5212	853200	0
2	5228	855900	0
2	5234	856800	0
2	5250	859500	0
2	5256	860400	0
2	5272	863100	0
2	5278	864000	0
2	5294	866700	0
2	5300	867600	0
2	5316	870300	0
2	5322	871200	0
2	5338	873900	0
2	5344	874800	0
2	5360	877500	0
2	5366	878400	0
2	5382	881100	0
2	5388	882000	0
2	5404	884700	0
2	5410	885600	0
2	5426	888300	0
2	5432	889200	0
2	5448	891900	0
2	5454	892800	0
2	5470	895500	0
2	5476	896400	0
2	5492	899100	0
2	5498	900000	0
2	5514	902700	0
2	5520	903600	0
2	5536	906300	0
2	5542	907200	0
2	5558	909900	0
2	5564	910800	0
2	5580	913500	0
2	5586	914400	0
2	5602	917100	0
2	5608	918000	0
2	5624	920700	0
2	5630	921600	0
2	5646	924300	0
2	5652	925200	0
2	5668	927900	0
2	5674	928800	0
2	5690	931500	0
2	5696	932400	0
2	5712	935100	0
2	5718	936000	0
2	5734	938700	0
2	5740	939600	0
2	5756	942300	0
2	5762	943200	0
2	5778	945900	0
2	5784	946800	0
2	5800	949500	0
2	5806	950400	0
2	5822	953100	0
2	5828	954000	0
2	5844	956700	0
2	5850	957600	0
2	5866	960300	0
2	5872	961200	0
2	5888	963900	0
2	5894	964800	0
2	5910	967500	0
2	5916	968400	0
2	5932	971100	0
2	5938	972000	0
2	5954	974700	0
2	5960	975600	0
2	5976	978300	0
2	5982	979200	0
2	5998	981900	0
2	6004	982800	0
2	6020	985500	0
2	6026	986400	0
2	6042	989100	0
2	6048	990000	0
2	6064	992700	0
2	6070	993600	0
2	6086	996300	0
2	6092	997200	0
2	6108	999900	0
2	6114	1000800	0
2	6130	1003500	0
2	6136	1004400	0
2	6152	1007100	0
2	6158	1008000	0
2	6174	1010700	0
2	6180	1011600	0
2	6196	1014300	0
2	6202	1015200	0
2	6218	1017900	0
2	6224	1018800	0
2	6240	1021500	0
2	6246	1022400	0
2	6262	1025100	0
2	6268	1026000	0
2	6284	1028700	0
2	6290	1029600	0
2	6306	1032300	0
2	6312	1033200	0
2	6328	1035900	0
2	6334	1036800	0
2	6350	1039500	0
2	6356	1040400	0
2	6372	1043100	0
2	6378	1044000	0
2	6394	1046700	0
2	6400	1047600	0
2	6416	1050300	0
2	6422	1051200	0
2	6438	1053900	0
2	6444	1054800	0
2	6460	1057500	0
2	6466	1058400	0
2	6482	1061100	0
2	6488	1062000	0
2	6504	1064700	0
2	6510	1065600	0
2	6526	1068300	0
2	6532	1069200	0
2	6548	1071900	0
2	6554	1072800	0
2	6570	1075500	0
2	6576	1076400	0
2	6592	1079100	0
2	6598	1080000	0
2	6614	1082700	0
2	6620	1083600	0
2	6636	1086300	0
2	6642	1087200	0
2	6658	1089900	0
2	6664	1090800	0
2	6680	1093500	0
2	6686	1094400	0
2	6702	1097100	0
2	6708	1098000	0
2	6724	1100700	0
2	6730	1101600	0
2	6746	1104300	0
2	6752	1105200	0
2	6768	1107900	0
2	6774	1108800	0
2	6790	1111500	0
2	6796	1112400	0
2	6812	1115100	0
2	6818	1116000	0
2	6834	1118700	0
2	6840	1119600	0
2	6856	1122300	0
2	6862	1123200	0
2	6878	1125900	0
2	6884	1126800	0
2	6900	1129500	0
2	6906	1130400	0
2	6922	1133100	0
2	6928	1134000	0
2	6944	1136700	0
2	6950	1137600	0
2	6966	1140300	0
2	6972	1141200	0
2	6988	1143900	0
2	6994	1144800	0
2	7010	1147500	0
2	7016	1148400	0
2	7032	1151100	0
2	7038	1152000	0
2	7054	1154700	0
2	7060	1155600	0
2	7076	1158300	0
2	7082	1159200	0
2	7098	1161900	0
2	7104	1162800	0
2	7120	1165500	0
2	7126	1166400	0
2	7142	1169100	0
2	7148	1170000	0
2	7164	1172700	0
2	7170	1173600	0
2	7186	1176300	0
2	7192	1177200	0
2	7208	1179900	0
2	7214	1180800	0
2	7230	1183500	0
2	7236	1184400	0
2	7252	1187100	0
2	7258	1188000	0
2	7274	1190700	0
2	7280	1191600	0
2	7296	1194300	0
2	7302	1195200	0
2	7318	1197900	0
2	7324	1198800	0
2	7340	1201500	0
2	7346	1202400	0
2	7362	1205100	0
2	7368	1206000	0
2	7384	1208700	0
2	7390	1209600	0
2	7406	1212300	0
2	7412	1213200	0
2	7428	1215900	0
2	7434	1216800	0
2	7450	1219500	0
2	7456	1220400	0
2	7472	1223100	0
2	7478	1224000	0
2	7494	1226700	0
2	7500	1227600	0
2	7516	1230300	0
2	7522	1231200	0
2	7538	1233900	0
2	7544	1234800	0
2	7560	1237500	0
2	7566	1238400	0
2	7582	1241100	0
2	7588	1242000	0
2	7604	1244700	0
2	7610	1245600	0
2	7626	1248300	0
2	7632	1249200	0
2	7648	1251900	0
2	7654	1252800	0
2	7670	1255500	0
2	7676	1256400	0
2	7692	1259100	0
2	7698	1260000	0
2	7714	1262700	0
2	7720	1263600	0
2	7736	1266300	0
2	7742	1267200	0
2	7758	1269900	0
2	7764	1270800	0
2	7780	1273500	0
2	7786	1274400	0
2	7802	1277100	0
2	7808	1278000	0
2	7824	1280700	0
2	7830	1281600	0
2	7846	1284300	0
2	7852	1285200	0
2	7868	1287900	0
2	7874	1288800	0
2	7890	1291500	0
2	7896	1292400	0
2	7912	1295100	0
2	7918	1296000	0
2	7934	1298700	0
2	7940	1299600	0
2	7956	1302300	0
2	7962	1303200	0
2	7978	1305900	0
2	7984	1306800	0
2	8000	1309500	0
2	8006	1310400	0
2	8022	1313100	0
2	8028	1314000	0
2	8044	1316700	0
2	8050	1317600	0
2	8066	1320300	0
2	8072	1321200	0
2	8088	1323900	0
2	8094	1324800	0
2	8110	1327500	0
2	8116	1328400	0
2	8132	1331100	0
2	8138	1332000	0
2	8154	1334700	0
2	8160	1335600	0
2	8176	1338300	0
2	8182	1339200	0
2	8198	1341900	0
2	8204	1342800	0
2	8220	1345500	0
2	8226	1346400	0
2	8242	1349100	0
2	8248	1350000	0
2	8264	1352700	0
2	8270	1353600	0
2	8286	1356300	0
2	8292	1357200	0
2	8308	1359900	0
2	8314	1360800	0
2	8330	1363500	0
2	8336	1364400	0
2	8352	1367100	0
2	8358	1368000	0
2	8374	1370700	0
2	8380	1371600	0
2	8396	1374300	0
2	8402	1375200	0
2	8418	1377900	0
2	8424	1378800	0
2	8440	1381500	0
2	8446	1382400	0
2	8462	1385100	0
2	8468	1386000	0
2	8484	1388700	0
2	8490	1389600	0
2	8506	1392300	0
2	8512	1393200	0
2	8528	1395900	0
2	8534	1396800	0
2	8550	1399500	0
2	8556	1400400	0
2	8572	1403100	0
2	8578	1404000	0
2	8594	1406700	0
2	8600	1407600	0
2	8616	1410300	0
2	8622	1411200	0
2	8638	1413900	0
2	8644	1414800	0
2	8660	1417500	0
2	8666	1418400	0
2	8682	1421100	0
2	8688	1422000	0
2	8704	1424700	0
2	8710	1425600	0
2	8726	1428300	0
2	8732	1429200	0
2	8748	1431900	0
2	8754	1432800	0
2	8770	1435500	0
2	8776	1436400	0
2	8792	1439100	0
2	8798	1440000	0
2	8814	1442700	0
2	8820	1443600	0
2	8836	1446300	0
2	8842	1447200	0
2	8858	1449900	0
2	8864	1450800	0
2	8880	1453500	0
2	8886	1454400	0
2	8902	1457100	0
2	8908	1458000	0
2	8924	1460700	0
2	8930	1461600	0
2	8946	1464300	0
2	8952	1465200	0
2	8968	1467900	0
2	8974	1468800	0
2	8990	1471500	0
2	8996	1472400	0
2	9012	1475100	0
2	9018	1476000	0
2	9034	1478700	0
2	9040	1479600	0
2	9056	1482300	0
2	9062	1483200	0
2	9078	1485900	0
2	9084	1486800	0
2	9100	1489500	0
2	9106	1490400	0
2	9122	1493100	0
2	9128	1494000	0
2	9144	1496700	0
2	9150	1497600	0
2	9166	1500300	0
2	9172	1501200	0
2	9188	1503900	0
2	9194	1504800	0
2	9210	1507500	0
2	9216	1508400	0
2	9232	1511100	0
2	9238	1512000	0
2	9254	1514700	0
2	9260	1515600	0
2	9276	1518300	0
2	9282	1519200	0
2	9298	1521900	0
2	9304	1522800	0
2	9320	1525500	0
2	9326	1526400	0
2	9342	1529100	0
2	9348	1530000	0
2	9364	1532700	0
2	9370	1533600	0
2	9386	1536300	0
2	9392	1537200	0
2	9408	1539900	0
2	9414	1540800	0
2	9430	1543500	0
2	9436	1544400	0
2	9452	1547100	0
2	9458	1548000	0
2	9474	1550700	0
2	9480	1551600	0
2	9496	1554300	0
2	9502	1555200	0
2	9518	1557900	0
2	9524	1558800	0
2	9540	1561500	0
2	9546	1562400	0
2	9562	1565100	0
2	9568	1566000	0
2	9584	1568700	0
2	9590	1569600	0
2	9606	1572300	0
2	9612	1573200	0
2	9628	1575900	0
2	9634	1576800	0
2	9650	1579500	0
2	9656	1580400	0
2	9672	1583100	0
2	9678	1584000	0
2	9694	1586700	0
2	9700	1587600	0
2	9716	1590300	0
2	9722	1591200	0
2	9738	1593900	0
2	9744	1594800	0
2	9760	1597500	0
2	9766	1598400	0
2	9782	1601100	0
2	9788	1602000	0
2	9804	1604700	0
2	9810	1605600	0
2	9826	1608300	0
2	9832	1609200	0
2	9848	1611900	0
2	9854	1612800	0
2	9870	1615500	0
2	9876	1616400	0
2	9892	1619100	0
2	9898	1620000	0
2	9914	1622700	0
2	9920	1623600	0
2	9936	1626300	0
2	9942	1627200	0
2	9958	1629900	0
2	9964	1630800	0
2	9980	1633500	0
2	9986	1634400	0
2	10002	1637100	0
2	10008	1638000	0
2	10024	1640700	0
2	10030	1641600	0
2	10046	1644300	0
2	10052	1645200	0
2	10068	1647900	0
2	10074	1648800	0
2	10090	1651500	0
2	10096	1652400	0
2	10112	1655100	0
2	10118	1656000	0
2	10134	1658700	0
2	10140	1659600	0
2	10156	1662300	0
2	10162	1663200	0
2	10178	1665900	0
2	10184	1666800	0
2	10200	1669500	0
2	10206	1670400	0
2	10222	1673100	0
2	10228	1674000	0
2	10244	1676700	0
2	10250	1677600	0
2	10266	1680300	0
2	10272	1681200	0
2	10288	1683900	0
2	10294	1684800	0
2	10310	1687500	0
2	10316	1688400	0
2	10332	1691100	0
2	10338	1692000	0
2	10354	1694700	0
2	10360	1695600	0
2	10376	1698300	0
2	10382	1699200	0
2	10398	1701900	0
2	10404	1702800	0
2	10420	1705500	0
2	10426	1706400	0
2	10442	1709100	0
2	10448	1710000	0
2	10464	1712700	0
2	10470	1713600	0
2	10486	1716300	0
2	10492	1717200	0
2	10508	1719900	0
2	10514	1720800	0
2	10530	1723500	0
2	10536	1724400	0
2	10552	1727100	0
2	10558	1728000	0
2	10574	1730700	0
2	10580	1731600	0
2	10596	1734300	0
2	10602	1735200	0
2	10618	1737900	0
2	10624	1738800	0
2	10640	1741500	0
2	10646	1742400	0
2	10662	1745100	0
2	10668	1746000	0
2	10684	1748700	0
2	10690	1749600	0
2	10706	1752300	0
2	10712	1753200	0
2	10728	1755900	0
2	10734	1756800	0
2	10750	1759500	0
2	10756	1760400	0
2	10772	1763100	0
2	10778	1764000	0
2	10794	1766700	0
2	10800	1767600	0
2	10816	1770300	0
2	10822	1771200	0
2	10838	1773900	0
2	10844	1774800	0
2	10860	1777500	0
2	10866	1778400	0
2	10882	1781100	0
2	10888	1782000	0
2	10904	1784700	0
2	10910	1785600	0
2	10926	1788300	0
2	10932	1789200	0
2	10948	1791900	0
2	10954	1792800	0
2	10970	1795500	0
2	10976	1796400	0
2	10992	1799100	0
2	10998	1800000	0
2	11014	1802700	0
2	11020	1803600	0
2	11036	1806300	0
2	11042	1807200	0
2	11058	1809900	0
2	11064	1810800	0
2	11080	1813500	0
2	11086	1814400	0
2	11102	1817100	0
2	11108	1818000	0
2	11124	1820700	0
2	11130	1821600	0
2	11146	1824300	0
2	11152	1825200	0
2	11168	1827900	0
2	11174	1828800	0
2	11190	1831500	0
2	11196	1832400	0
2	11212	1835100	0
2	11218	1836000	0
2	11234	1838700	0
2	11240	1839600	0
2	11256	1842300	0
2	11262	1843200	0
2	11278	1845900	0
2	11284	1846800	0
2	11300	1849500	0
2	11306	1850400	0
2	11322	1853100	0
2	11328	1854000	0
2	11344	1856700	0
2	11350	1857600	0
2	11366	1860300	0
2	11372	1861200	0
2	11388	1863900	0
2	11394	1864800	0
2	11410	1867500	0
2	11416	1868400	0
2	11432	1871100	0
2	11438	1872000	0
2	11454	1874700	0
2	11460	1875600	0
2	11476	1878300	0
2	11482	1879200	0
2	11498	1881900	0
2	11504	1882800	0
2	11520	1885500	0
2	11526	1886400	0
2	11542	1889100	0
2	11548	1890000	0
2	11564	1892700	0
2	11570	1893600	0
2	11586	1896300	0
2	11592	1897200	0
2	11608	1899900	0
2	11614	1900800	0
2	11630	1903500	0
2	11636	1904400	0
2	11652	1907100	0
2	11658	1908000	0
2	11674	1910700	0
2	11680	1911600	0
2	11696	1914300	0
2	11702	1915200	0
2	11718	1917900	0
2	11724	1918800	0
2	11740	1921500	0
2	11746	1922400	0
2	11762	1925100	0
2	11768	1926000	0
2	11784	1928700	0
2	11790	1929600	0
2	11806	1932300	0
2	11812	1933200	0
2	11828	1935900	0
2	11834	1936800	0
2	11850	1939500	0
2	11856	1940400	0
2	11872	1943100	0
2	11878	1944000	0
2	11894	1946700	0
2	11900	1947600	0
2	11916	1950300	0
2	11922	1951200	0
2	11938	1953900	0
2	11944	1954800	0
2	11960	1957500	0
2	11966	1958400	0
2	11982	1961100	0
2	11988	1962000	0
2	12004	1964700	0
2	12010	1965600	0
2	12026	1968300	0
2	12032	1969200	0
2	12048	1971900	0
2	12054	1972800	0
2	12070	1975500	0
2	12076	1976400	0
2	12092	1979100	0
2	12098	1980000	0
2	12114	1982700	0
2	12120	1983600	0
2	12136	1986300	0
2	12142	1987200	0
2	12158	1989900	0
2	12164	1990800	0
2	12180	1993500	0
2	12186	1994400	0
2	12202	1997100	0
2	12208	1998000	0
2	12224	2000700	0
2	12230	2001600	0
2	12246	2004300	0
2	12252	2005200	0
2	12268	2007900	0
2	12274	2008800	0
2	12290	2011500	0
2	12296	2012400	0
2	12312	2015100	0
2	12318	2016000	0
2	12334	2018700	0
2	12340	2019600	0
2	12356	2022300	0
2	12362	2023200	0
2	12378	2025900	0
2	12384	2026800	0
2	12400	2029500	0
2	12406	2030400	0
2	12422	2033100	0
2	12428	2034000	0
2	12444	2036700	0
2	12450	2037600	0
2	12466	2040300	0
2	12472	2041200	0
2	12488	2043900	0
2	12494	2044800	0
2	12510	2047500	0
2	12516	2048400	0
2	12532	2051100	0
2	12538	2052000	0
2	12554	2054700	0
2	12560	2055600	0
2	12576	2058300	0
2	12582	2059200	0
2	12598	2061900	0
2	12604	2062800	0
2	12620	2065500	0
2	12626	2066400	0
2	12642	2069100	0
2	12648	2070000	0
2	12664	2072700	0
2	12670	2073600	0
2	12686	2076300	0
2	12692	2077200	0
2	12708	2079900	0
2	12714	2080800	0
2	12730	2083500	0
2	12736	2084400	0
2	12752	2087100	0
2	12758	2088000	0
2	12774	2090700	0
2	12780	2091600	0
2	12796	2094300	0
2	12802	2095200	0
2	12818	2097900	0
2	12824	2098800	0
2	12840	2101500	0
2	12846	2102400	0
2	12862	2105100	0
2	12868	2106000	0
2	12884	2108700	0
2	12890	2109600	0
2	12906	2112300	0
2	12912	2113200	0
2	12928	2115900	0
2	12934	2116800	0
2	12950	2119500	0
2	12956	2120400	0
2	12972	2123100	0
2	12978	2124000	0
2	12994	2126700	0
2	13000	2127600	0
2	13016	2130300	0
2	13022	2131200	0
2	13038	2133900	0
2	13044	2134800	0
2	13060	2137500	0
2	13066	2138400	0
2	13082	2141100	0
2	13088	2142000	0
2	13104	2144700	0
2	13110	2145600	0
2	13126	2148300	0
2	13132	2149200	0
2	13148	2151900	0
2	13154	2152800	0
2	13170	2155500	0
2	13176	2156400	0
2	13192	2159100	0
2	13198	2160000	0
2	13214	2162700	0
2	13220	2163600	0
2	13236	2166300	0
2	13242	2167200	0
2	13258	2169900	0
2	13264	2170800	0
2	13280	2173500	0
2	13286	2174400	0
2	13302	2177100	0
2	13308	2178000	0
2	13324	2180700	0
2	13330	2181600	0
2	13346	2184300	0
2	13352	2185200	0
2	13368	2187900	0
2	13374	2188800	0
2	13390	2191500	0
2	13396	2192400	0
2	13412	2195100	0
2	13418	2196000	0
2	13434	2198700	0
2	13440	2199600	0
2	13456	2202300	0
2	13462	2203200	0
2	13478	2205900	0
2	13484	2206800	0
2	13500	2209500	0
2	13506	2210400	0
2	13522	2213100	0
2	13528	2214000	0
2	13544	2216700	0
2	13550	2217600	0
2	13566	2220300	0
2	13572	2221200	0
2	13588	2223900	0
2	13594	2224800	0
2	13610	2227500	0
2	13616	2228400	0
2	13632	2231100	0
2	13638	2232000	0
2	13654	2234700	0
2	13660	2235600	0
2	13676	2238300	0
2	13682	2239200	0
2	13698	2241900	0
2	13704	2242800	0
2	13720	2245500	0
2	13726	2246400	0
2	13742	2249100	0
2	13748	2250000	0
2	13764	2252700	0
2	13770	2253600	0
2	13786	2256300	0
2	13792	2257200	0
2	13808	2259900	0
2	13814	2260800	0
2	13830	2263500	0
2	13836	2264400	0
2	13852	2267100	0
2	13858	2268000	0
2	13874	2270700	0
2	13880	2271600	0
2	13896	2274300	0
2	13902	2275200	0
2	13918	2277900	0
2	13924	2278800	0
2	13940	2281500	0
2	13946	2282400	0
2	13962	2285100	0
2	13968	2286000	0
2	13984	2288700	0
2	13990	2289600	0
2	14006	2292300	0
2	14012	2293200	0
2	14028	2295900	0
2	14034	2296800	0
2	14050	2299500	0
2	14056	2300400	0
2	14072	2303100	0
2	14078	2304000	0
2	14094	2306700	0
2	14100	2307600	0
2	14116	2310300	0
2	14122	2311200	0
2	14138	2313900	0
2	14144	2314800	0
2	14160	2317500	0
2	14166	2318400	0
2	14182	2321100	0
2	14188	2322000	0
2	14204	2324700	0
2	14210	2325600	0
2	14226	2328300	0
2	14232	2329200	0
2	14248	2331900	0
2	14254	2332800	0
2	14270	2335500	0
2	14276	2336400	0
2	14292	2339100	0
2	14298	2340000	0
2	14314	2342700	0
2	14320	2343600	0
2	14336	2346300	0
2	14342	2347200	0
2	14358	2349900	0
2	14364	2350800	0
2	14380	2353500	0
2	14386	2354400	0
2	14402	2357100	0
2	14408	2358000	0
2	14424	2360700	0
2	14430	2361600	0
2	14446	2364300	0
2	14452	2365200	0
2	14468	2367900	0
2	14474	2368800	0
2	14490	2371500	0
2	14496	2372400	0
2	14512	2375100	0
2	14518	2376000	0
2	14534	2378700	0
2	14540	2379600	0
2	14556	2382300	0
2	14562	2383200	0
2	14578	2385900	0
2	14584	2386800	0
2	14600	2389500	0
2	14606	2390400	0
2	14622	2393100	0
2	14628	2394000	0
2	14644	2396700	0
2	14650	2397600	0
2	14666	2400300	0
2	14672	2401200	0
2	14688	2403900	0
2	14694	2404800	0
2	14710	2407500	0
2	14716	2408400	0
2	14732	2411100	0
2	14738	2412000	0
2	14754	2414700	0
2	14760	2415600	0
2	14776	2418300	0
2	14782	2419200	0
2	14798	2421900	0
2	14804	2422800	0
2	14820	2425500	0
2	14826	2426400	0
2	14842	2429100	0
2	14848	2430000	0
2	14864	2432700	0
2	14870	2433600	0
2	14886	2436300	0
2	14892	2437200	0
2	14908	2439900	0
2	14914	2440800	0
2	14930	2443500	0
2	14936	2444400	0
2	14952	2447100	0
2	14958	2448000	0
2	14974	2450700	0
2	14980	2451600	0
2	14996	2454300	0
2	15002	2455200	0
2	15018	2457900	0
2	15024	2458800	0
2	15040	2461500	0
2	15046	2462400	0
2	15062	2465100	0
2	15068	2466000	0
2	15084	2468700	0
2	15090	2469600	0
2	15106	2472300	0
2	15112	2473200	0
2	15128	2475900	0
2	15134	2476800	0
2	15150	2479500	0
2	15156	2480400	0
2	15172	2483100	0
2	15178	2484000	0
2	15194	2486700	0
2	15200	2487600	0
2	15216	2490300	0
2	15222	2491200	0
2	15238	2493900	0
2	15244	2494800	0
2	15260	2497500	0
2	15266	2498400	0
2	15282	2501100	0
2	15288	2502000	0
2	15304	2504700	0
2	15310	2505600	0
2	15326	2508300	0
2	15332	2509200	0
2	15348	2511900	0
2	15354	2512800	0
2	15370	2515500	0
2	15376	2516400	0
2	15392	2519100	0
2	15398	2520000	0
2	15414	2522700	0
2	15420	2523600	0
2	15436	2526300	0
2	15442	2527200	0
2	15458	2529900	0
2	15464	2530800	0
2	15480	2533500	0
2	15486	2534400	0
2	15502	2537100	0
2	15508	2538000	0
2	15524	2540700	0
2	15530	2541600	0
2	15546	2544300	0
2	15552	2545200	0
2	15568	2547900	0
2	15574	2548800	0
2	15590	2551500	0
2	15596	2552400	0
2	15612	2555100	0
2	15618	2556000	0
2	15634	2558700	0
2	15640	2559600	0
2	15656	2562300	0
2	15662	2563200	0
2	15678	2565900	0
2	15684	2566800	0
2	15700	2569500	0
2	15706	2570400	0
2	15722	2573100	0
2	15728	2574000	0
2	15744	2576700	0
2	15750	2577600	0
2	15766	2580300	0
2	15772	2581200	0
2	15788	2583900	0
2	15794	2584800	0
2	15810	2587500	0
2	15816	2588400	0
2	15832	2591100	0
2	15838	2592000	0

