version 2
run Deterministic-0-20210809-12:20:28-36928
attr configname Deterministic
attr datetime 20210809-12:20:28
attr experiment Deterministic
attr inifile omnetpp.ini
attr iterationvars ""
attr iterationvarsf ""
attr measurement ""
attr network Airport
attr processid 36928
attr repetition 0
attr replication #0
attr resultdir results
attr runnumber 0
attr seedset 0
param **.interarrivalDistr "\"constant\""

vector 0 Airport.parkingArea numPlane:vector ETV
attr "" ""
attr source numPlane
vector 1 Airport.controlTower LandingQueueTime:vector ETV
attr "" ""
attr source LandingQueueTime
0	1	30	0
0	2	60	0
0	3	90	0
0	4	120	0
0	5	150	0
0	6	180	0
0	7	210	0
0	8	240	0
0	9	270	0
0	10	300	0
0	11	330	0
0	12	360	0
0	13	390	0
0	14	420	0
0	15	450	0
0	16	480	0
0	17	510	0
0	18	540	0
0	19	570	0
0	20	600	0
0	21	630	0
0	22	660	0
0	23	690	0
0	24	720	0
0	25	750	0
0	26	780	0
0	27	810	0
0	28	840	0
0	29	870	0
0	30	900	0
0	31	930	0
0	32	960	0
0	33	990	0
0	34	1020	0
0	35	1050	0
0	36	1080	0
0	37	1110	0
0	38	1140	0
0	39	1170	0
0	40	1200	0
0	41	1230	0
0	42	1260	0
0	43	1290	0
0	44	1320	0
0	45	1350	0
0	46	1380	0
0	47	1410	0
0	48	1440	0
0	49	1470	0
0	50	1500	0
0	51	1530	0
0	52	1560	0
0	53	1590	0
0	54	1620	0
0	55	1650	0
0	56	1680	0
0	57	1710	0
0	58	1740	0
0	59	1770	0
0	61	1800	0
0	63	1830	0
0	64	1860	0
0	65	1890	0
0	66	1920	0
0	67	1950	0
0	68	1980	0
0	69	2010	0
0	70	2040	0
0	71	2070	0
0	72	2100	0
0	76	2130	1
0	77	2160	1
0	78	2190	1
0	79	2220	1
0	80	2250	1
0	81	2280	1
0	82	2310	1
0	83	2340	1
0	84	2370	1
0	85	2400	1
0	86	2430	1
0	87	2460	1
0	88	2490	1
0	89	2520	1
0	90	2550	1
0	91	2580	1
0	92	2610	1
0	93	2640	1
0	94	2670	1
0	95	2700	1
0	96	2730	1
0	97	2760	1
0	98	2790	1
0	99	2820	1
0	100	2850	1
0	101	2880	1
0	102	2910	1
0	103	2940	1
0	104	2970	1
0	105	3000	1
0	106	3030	1
0	107	3060	1
0	108	3090	1
0	109	3120	1
0	110	3150	1
0	111	3180	1
0	112	3210	1
0	113	3240	1
0	114	3270	1
0	115	3300	1
0	116	3330	1
0	117	3360	1
0	118	3390	1
0	119	3420	1
0	120	3450	1
0	121	3480	1
0	122	3510	1
0	123	3540	1
0	124	3570	1
0	126	3600	1
0	128	3630	1
0	129	3660	1
0	130	3690	1
0	131	3720	1
0	132	3750	1
0	133	3780	1
0	134	3810	1
0	135	3840	1
0	136	3870	1
0	137	3900	1
0	138	3930	1
0	139	3960	1
0	140	3990	1
0	141	4020	1
0	142	4050	1
0	143	4080	1
0	147	4110	2
0	148	4140	2
0	149	4170	2
0	150	4200	2
0	151	4230	2
0	152	4260	2
0	153	4290	2
0	154	4320	2
0	155	4350	2
0	156	4380	2
0	157	4410	2
0	158	4440	2
0	159	4470	2
0	160	4500	2
0	161	4530	2
0	162	4560	2
0	163	4590	2
0	164	4620	2
0	165	4650	2
0	166	4680	2
0	167	4710	2
0	168	4740	2
0	169	4770	2
0	170	4800	2
0	171	4830	2
0	172	4860	2
0	173	4890	2
0	174	4920	2
0	175	4950	2
0	176	4980	2
0	177	5010	2
0	178	5040	2
0	179	5070	2
0	180	5100	2
0	181	5130	2
0	182	5160	2
0	183	5190	2
0	184	5220	2
0	185	5250	2
0	186	5280	2
0	187	5310	2
0	188	5340	2
0	189	5370	2
0	191	5400	2
0	193	5430	2
0	194	5460	2
0	195	5490	2
0	196	5520	2
0	197	5550	2
0	198	5580	2
0	199	5610	2
0	200	5640	2
0	201	5670	2
0	202	5700	2
0	206	5730	3
0	209	5760	2
0	210	5790	2
0	211	5820	2
0	212	5850	2
0	213	5880	2
0	214	5910	2
0	215	5940	2
0	216	5970	2
0	217	6000	2
0	218	6030	2
0	219	6060	2
0	220	6090	2
1	62	1800	0
1	127	3600	0
1	192	5400	0

