version 2
run Exponential-0-20210810-19:08:47-8984
attr configname Exponential
attr datetime 20210810-19:08:47
attr experiment Exponential
attr inifile omnetpp.ini
attr iterationvars ""
attr iterationvarsf ""
attr measurement ""
attr network Airport
attr processid 8984
attr repetition 0
attr replication #0
attr resultdir results
attr runnumber 0
attr seedset 0
param **.interarrivalDistr "\"exponential\""
param **.interarrivalTime 500s

vector 0 Airport.controlTower LandingQueueTime:vector ETV
attr "" ""
attr source LandingQueueTime
vector 1 Airport.parkingArea numPlane:vector ETV
attr "" ""
attr source numPlane
0	2	397.937252282888	0
0	7	859.548818018286	0
0	11	1374.316189927979	239.24312857454
0	16	1748.45440776646	325.62174797153
0	22	3080.288799759074	0
0	27	3864.736858570581	0
0	35	4352.038094449421	67.584809428716
0	38	4587.708970347052	266.41300759381
0	64	6711.188373995578	2379.6796170428
0	71	6966.161081848299	1881.7601955768
0	75	7050.371548302105	43.359727459713
0	80	7334.536372312909	18.05982165716
0	87	7646.822860605648	267.40910523086
0	103	8367.188754399872	910.41015877506
0	105	8689.612691338739	863.92044983598
0	108	8753.157255194715	773.82483761569
0	113	8864.956661920628	581.08303275007
0	116	8994.886875945708	701.5289621746
0	119	9189.371478419384	422.5152260608
1	5	753.644022116229	1
1	12	1374.316189927979	2
1	17	1748.45440776646	3
1	20	1926.97517091967	4
1	25	3243.882576469405	5
1	36	4352.038094449421	6
1	39	4587.708970347052	7
1	40	4771.802170412614	6
1	44	4790.146667325502	7
1	45	4900.477227991239	6
1	51	5590.388514172285	5
1	55	5931.02527027957	4
1	59	6173.515573983645	3
1	65	6850.776378648354	2
1	69	6932.13329641298	3
1	76	7050.371548302105	4
1	81	7334.536372312909	5
1	88	7646.822860605648	6
1	89	7679.175749189785	5
1	97	8079.202451558417	6
1	106	8689.612691338739	7
1	109	8753.157255194715	8
1	114	8864.956661920628	9
1	117	8994.886875945708	10
1	120	9189.371478419384	11
1	123	9322.764309730014	12
1	124	9660.334156548238	11

