version 2
run Exponential-0-20210814-14:21:03-18840
attr configname Exponential
attr datetime 20210814-14:21:03
attr experiment Exponential
attr inifile omnetpp.ini
attr iterationvars ""
attr iterationvarsf ""
attr measurement ""
attr network Airport
attr processid 18840
attr repetition 0
attr replication #0
attr resultdir results
attr runnumber 0
attr seedset 0
param **.interarrivalDistr "\"exponential\""
param **.landingDistr "\"exponential\""
param **.parkingDistr "\"exponential\""
param **.takeoffDistr "\"exponential\""
param **.interarrivalAvgRate "1 / 900"
param **.landingAvgRate "1 / 300"
param **.parkingAvgRate "1 / 3600"
param **.takeoffAvgRate "1 / 300"
param **.interarrivalRNGIdx 0
param **.landingRNGIdx 1
param **.parkingRNGIdx 2
param **.takeoffRNGIdx 3

vector 0 Airport.controlTower LandingQueueTime:vector ETV
attr "" ""
attr source LandingQueueTime
vector 1 Airport.parkingArea numPlane:vector ETV
attr "" ""
attr source numPlane
vector 2 Airport.controlTower TakeoffQueueTime:vector ETV
attr "" ""
attr source TakeoffQueueTime
vector 3 Airport.controlTower Throughput:vector ETV
attr "" ""
attr source Throughput
0	2	716.287054109198	0
0	7	1524.991403744745	0
0	16	3526.89357930695	871.56449331955
0	29	4395.154288364601	66.181411510004
0	34	5204.097639748654	44.223944570341
0	39	6916.264497474329	0
0	44	7624.745523458058	0
0	53	9315.813172240523	0
0	64	11615.059547648797	1803.302737405
0	69	11662.672426816682	971.60983281886
0	72	11743.463614119563	118.05764952426
0	77	12062.021311944786	0
0	82	12579.98858913947	0
0	91	12897.83181436324	0
0	122	15499.900549925889	600.89675572996
0	125	15627.093493568066	675.54349718837
0	142	17934.971048315154	0
0	147	18221.491575072771	0
0	152	19044.000379774456	387.26691024808
0	161	19345.859825597816	104.62464264566
0	174	20653.241688812862	0
0	183	22158.231769105321	0
0	188	22835.638471086848	0
0	193	23424.132781585845	0
0	202	24179.622349196068	0
0	211	24628.607157310374	0
0	224	26967.035834574441	0
0	241	28594.568172421886	0
0	246	28672.812927403523	11.927935063068
0	251	29031.305188958807	0
0	256	29260.642664694116	147.29255222344
0	265	30053.501369947953	0
0	276	30887.312896960575	815.42849745346
0	279	31049.340211897171	564.13248886037
0	292	32719.189454390801	625.2428342592
0	305	34929.09955593993	0
0	318	36284.305388713575	0
0	323	36420.413157012059	0
0	340	38512.685733352946	255.98974419318
0	349	40093.498983480318	0
0	358	43554.19866570798	0
0	363	44131.73692111828	0
0	368	45576.452522473647	0
0	385	47208.982496701568	179.92810682461
0	390	47695.978904455143	109.88800091414
0	395	48247.558882611824	0
0	408	49612.441259202986	0
0	421	50634.786306742193	0
0	426	50853.82461828274	105.75134304628
0	435	51895.778207237729	0
0	444	52815.066894152009	0
0	453	53731.48964456566	131.33367487575
0	458	54261.575010143296	522.16232800335
0	463	54433.163874760531	0
0	484	57214.224438741198	176.0821337923
0	497	58317.370517033239	0
0	502	58981.415079613556	0
0	507	59082.166624182928	0
0	512	59564.175772388014	0
0	521	60342.939477388316	201.23847317229
0	528	60676.018686668415	257.76536551511
0	531	60707.076292315121	103.24001733438
0	568	64787.88248058472	2844.6168624275
0	575	64951.874088210822	1806.847303892
0	580	65285.980376540846	1592.7794113573
0	591	66570.991685423359	2658.1470785769
0	594	66730.191979241741	2061.0461373443
0	597	66958.725986008274	2158.8299195479
0	600	67024.752039423068	2207.7842606817
0	607	67377.92901669879	2208.3675083484
0	610	67480.519661640669	1445.7153081311
0	617	67712.295389995428	1531.5681959845
0	620	67758.282751302512	725.25854783408
0	623	68106.270411798961	846.94846946321
0	630	68565.062859405306	442.14773743814
0	633	69104.925978104927	542.30951176058
0	670	71963.453958709394	810.71397321511
0	687	73248.762022287044	0
0	700	74279.387081517091	0
0	705	74817.358550653653	0
0	710	75218.325196199735	0
0	715	76567.518396705785	494.648075359
0	720	76891.722753709497	301.7732662956
0	725	78683.665442938823	0
0	750	80308.039100124011	547.87663767385
0	753	80406.775374042463	552.50780839463
0	756	80584.025394854214	673.85406778663
0	769	83060.363643076739	0
0	774	84049.384863872589	0
0	783	85002.335582211417	0
0	792	86001.873283329907	0
0	803	86498.152643306857	327.59590056086
0	806	86688.185410673819	305.04263245339
0	817	87589.496848747223	807.29044476825
0	820	87619.831795354272	713.39957178969
0	825	88156.570644376482	0
0	856	90578.536433446744	2080.9000212159
0	859	90680.344999821724	1340.2531837966
0	862	90718.521359416764	971.53768918951
0	865	90760.309831205999	659.52485940505
0	872	90983.515294974101	122.74530899822
0	875	90989.382381490815	93.347554743174
0	884	91628.731953477896	213.10524700438
0	897	92345.313714870312	24.403103746896
0	918	96329.957772681851	0
0	939	99203.609750530106	0
0	944	99927.49176796513	627.01042009456
0	949	100252.52511988758	0
0	954	100463.396486785592	0
0	959	101370.613807663714	0
0	964	101634.015562754778	105.07956420802
0	997	106710.659087097671	357.63277333202
0	1006	107305.894757350362	0
0	1011	108090.619025613536	0
0	1016	108376.146463178889	22.654957624865
0	1029	109365.091622175359	530.0419072464
0	1038	110305.83594804589	905.63881022489
0	1045	110790.567436053531	810.96739679023
0	1048	110881.296110995147	649.44676410076
0	1053	111242.246411115291	131.21939755729
0	1058	111321.051720188969	54.209996099424
0	1063	111638.092831019809	0
0	1068	111866.808886903865	123.45618707086
0	1077	112754.204171212999	0
0	1082	113715.469148647565	0
0	1091	114185.176800077131	126.30739239279
0	1096	114388.985347184532	196.27489717329
0	1111	115802.890837148847	254.20858719236
0	1114	116036.241365799037	290.56657898599
0	1143	118451.191723973	17.04603449312
0	1148	118886.2625792844	38.104327838257
0	1157	119825.800694236588	0
0	1178	121647.851671142458	273.75248496096
0	1185	122151.576179862968	765.1788730937
0	1188	122196.811228496924	718.48352835519
0	1193	122413.824559483693	57.905118601295
0	1210	124286.737751628657	292.98128339031
0	1217	125154.662075305682	153.07267788879
0	1220	125163.738408819635	71.217713624676
0	1237	128308.750230304908	0
0	1254	131682.878543930944	0
0	1263	133577.667714643952	0
0	1268	134146.770651400169	0
0	1273	134788.095885400066	0
0	1290	138173.830441453636	0
0	1295	138225.424675235012	0
0	1300	139061.055322446266	0
0	1319	141009.761271222309	1408.7537507991
0	1322	141152.005417445532	341.17715208523
0	1325	141304.093764531937	475.09438384007
0	1340	141926.976834005333	1061.998784161
0	1347	142192.50855317529	802.93995335072
0	1350	142509.432157246609	820.69434055471
0	1367	145191.150927252689	0
0	1372	145325.628745886767	19.226729853981
0	1381	145707.27953176058	0
0	1386	146023.338012203763	0
0	1391	146613.419668131037	0
0	1400	146938.912695593119	211.74325467928
0	1423	149420.868550298953	1643.5129354913
0	1426	149461.379123423111	1339.5926546399
0	1435	150203.27729715462	169.67735106993
0	1440	150554.830246929912	39.834362663998
0	1461	152768.51648904259	0
0	1468	153081.540212933309	253.35606255679
0	1475	153540.096806459533	491.95675280935
0	1480	154109.410628008854	0
0	1489	154858.969792468407	0
0	1494	155611.457571241641	0
0	1511	157468.075795885635	53.701754387526
0	1516	157691.947397586149	0
0	1531	159132.441213295956	800.37067221437
0	1534	159551.694341564818	552.94074508091
0	1547	161235.77771776308	0
0	1556	162243.690022744063	919.12702740455
0	1561	163610.837052502355	0
0	1570	164382.943129469155	0
0	1575	164709.638116922437	248.60155334766
0	1596	167056.773219358032	211.40631997451
0	1609	167514.26485862052	376.0915852609
0	1612	167537.261796445966	53.884330397588
0	1615	167573.825987090935	81.987845444906
0	1624	168585.961811563712	103.3623508359
0	1643	170320.775872563066	175.58152593361
0	1646	170340.639393241775	68.247404407623
0	1651	171209.994577595661	0
0	1656	172343.935006693726	0
0	1661	174001.089231032083	0
0	1676	175338.178729950445	1029.6007485949
0	1685	176049.266721839815	1463.9227890981
0	1688	176192.582295021351	1425.1229675691
0	1691	176273.742076053864	1049.8026376707
0	1728	179639.581394256743	3620.8258181102
0	1745	181424.036016210712	4680.9627802429
0	1748	181867.02648317513	5105.6720342913
0	1751	182122.79563528784	5199.2141596177
0	1754	182230.381757473099	3717.6333166312
0	1757	182231.244093087513	3302.9378458055
0	1762	182675.741124987607	3743.1989912626
0	1773	183334.42581932977	4259.3763299972
0	1776	183384.217339382892	3289.7971222751
0	1781	183502.862075639771	2649.6671295984
0	1786	183762.138066467747	2625.6936256572
0	1789	183986.772889525021	1755.4706606216
0	1792	183989.487533359048	562.30321808031
0	1819	186265.395301585834	2531.8989218954
0	1828	186703.792874767361	22.667635133606
0	1837	187192.238977765975	0
0	1842	187449.657853023236	0
0	1861	189825.508366952086	1105.9285455639
0	1866	190259.439623978127	767.30613154388
0	1869	190552.379353616621	606.3364352533
0	1886	191305.454786324179	552.48008425359
0	1913	193797.923486815947	1007.5885664706
0	1916	193891.926463374508	337.29281262116
0	1931	195467.853561124001	996.42705335375
0	1938	196530.559324551037	1831.9548231787
0	1943	196882.783463447983	184.82275344897
0	1948	199445.01420119489	0
0	1965	202067.7309291428	1597.0695607682
0	1968	202089.528426773716	1085.5054336922
0	1971	202146.274462950493	605.51001497242
0	1988	203522.220301118596	295.34196126906
0	2001	206685.584264768851	0
0	2006	207767.598975290715	0
0	2013	208576.711868235303	697.93891031868
0	2016	208640.65352642796	444.1624485646
0	2021	209507.627780571137	0
0	2034	211184.408767946465	163.95100328399
0	2039	211498.108011617381	0
0	2052	212064.387813534108	111.76292893756
0	2061	212965.378699755937	0
0	2070	214881.928156217163	0
0	2075	215302.504333202822	161.90674852263
0	2080	215924.079828373979	0
0	2089	216903.264128306645	641.01934176654
0	2102	218183.592191524984	0
0	2119	221211.525599271001	0
0	2128	222272.970239551173	0
0	2137	223072.045508944233	0
0	2168	226861.637397531467	2626.8735466666
0	2171	226867.66151770061	1662.846271113
0	2174	227019.071489130762	1188.0367277327
0	2177	227027.039674575722	510.32391901137
0	2190	229329.637277456751	0
0	2195	229565.488794964635	0
0	2208	230669.767259112234	174.76115456672
0	2213	230947.085822980332	0
0	2226	231944.77074443664	501.42853033548
0	2231	232534.664501235001	223.31407818937
0	2240	233150.513015411565	0
0	2251	233923.701384577398	193.49413167548
0	2254	234002.7967129383	255.14765682316
0	2279	237155.674126339666	2836.4101261568
0	2286	238185.182784481187	3542.8842900155
0	2295	238870.680314846752	3095.2426548436
0	2298	238968.531869226583	2221.7060304334
0	2301	239008.30798668561	1955.7838885683
0	2304	239088.132120759713	1727.2683604141
0	2307	239186.343400463744	1390.2075221877
0	2310	239215.150155813109	552.8767273431
0	2345	240717.387571511985	810.43285715888
0	2348	240970.625101681122	559.70542426142
0	2357	242307.622521875047	0
0	2368	242641.525497869841	202.88639539175
0	2373	242888.522909679428	352.19141855594
0	2378	243026.108273201551	170.97506305715
0	2381	243031.755276047816	89.391586784244
0	2418	247708.646517768823	4006.7832031735
0	2425	248266.35125348039	4171.1627264885
0	2428	248368.996955568324	3469.4522581015
0	2431	248448.567436460453	2826.7259518109
0	2448	250896.716960677761	4506.2037139495
0	2457	251480.871497325459	5059.575174075
0	2460	251765.630435735037	4391.2256656415
0	2465	251912.869031442348	1413.1823299945
0	2468	252079.882691098568	629.93134185698
0	2487	253361.929263726614	1563.5608315509
0	2490	253780.073596775448	1473.555713591
0	2493	254192.527605156858	1660.9363764925
0	2498	254573.361822087619	0
0	2503	254817.103403494918	106.67731867827
0	2508	255122.781680379025	0
0	2517	255214.870233746333	0
0	2546	257180.564472031793	1450.478842
0	2559	259454.1144144912	0
0	2564	261456.537605994014	0
0	2569	261727.94692789502	0
0	2578	263204.754748029135	0
0	2583	263897.823921620776	0
0	2596	265158.060223248627	164.9187558241
0	2601	265527.807615915958	0
0	2608	265984.728524756212	361.86952957435
0	2615	266626.085062060804	908.8324148386
0	2624	267984.60656429715	0
0	2657	271083.125653500694	2707.6079988542
0	2660	271094.124673199758	1591.2602461327
0	2663	271340.225932179164	1267.2451491616
0	2680	276161.832250960887	0
0	2689	277817.591757530613	0
0	2698	278157.62968944649	194.35485387483
0	2707	280078.43439634732	0
0	2720	281901.752331740265	0
0	2729	282927.649311359634	991.44235802308
0	2736	283225.120018921636	1129.3200479544
0	2739	283476.988699997819	742.26259452908
0	2744	283595.095886998907	0
0	2749	283759.380628693263	0
0	2754	283878.345967346486	0
0	2771	286249.054686093983	1011.8676086991
0	2780	286932.723075322373	0
0	2789	288734.510921295738	0
0	2798	290216.558112489898	0
0	2809	291510.571332439516	817.01062962657
0	2820	292348.221217984792	896.96764961304
0	2835	293291.650867148386	1704.6853896023
0	2838	293430.801941692001	1373.2534370663
0	2855	296750.947509184734	4662.9908975622
0	2858	296766.341208440089	4613.876750936
0	2865	297329.20091605747	1531.8743036292
0	2868	297734.427607521546	861.20628543932
0	2871	297816.698573871607	522.93194202048
0	2890	298588.170767075167	750.53497056116
0	2893	298792.399847374326	464.39263553021
0	2910	299480.307995275322	0
0	2915	299770.5482409791	243.5189487391
0	2926	301979.418516530382	640.89376170514
0	2929	302509.212521673085	761.26710653526
0	2946	305086.909947851207	0
0	2951	305138.072216523408	36.071279279247
0	2964	306844.920450986265	0
0	2969	307081.016829235814	0
0	2974	307396.925492025621	305.30375406326
0	2979	308394.636411752027	0
0	2988	308796.263950219165	0
0	3009	311392.414527111381	0
0	3014	312570.783054731876	0
0	3019	313818.445271550938	0
0	3024	314249.813966826516	261.90321757837
0	3029	314502.204733641363	141.142696
0	3038	315023.580027629237	0
0	3043	315628.79449277949	0
0	3048	315856.469355949473	177.39181557036
0	3083	318973.109606460487	2921.4510356759
0	3086	319007.846036030038	2755.3621779548
0	3089	319267.914278476738	2837.3838636883
0	3092	319315.273006698515	2867.9166685312
0	3127	321771.928443898442	5155.8050496487
0	3130	321985.192736751059	3948.4978926059
0	3133	322225.377858195292	3628.3454044695
0	3136	322298.247942415634	3473.0603540608
0	3139	322708.589168552477	2014.9736257992
0	3168	324789.00058957703	3714.0936556026
0	3171	325120.902816465562	1449.906022925
0	3176	326039.993769834367	0
0	3181	326883.418615785399	0
0	3198	327980.335738794443	0
0	3203	328797.503363386547	0
0	3208	329230.987697454958	404.3632098877
0	3213	330204.372591207913	0
0	3218	330366.334198604571	0
0	3243	331918.919199815415	928.7052086271
0	3246	331942.067250758756	77.519317284925
0	3249	332012.850038687828	101.7874899981
0	3258	333124.429170565184	438.53534886282
0	3263	333766.767637590125	0
0	3268	334011.268900898202	0
0	3289	338402.488500092363	0
0	3306	340851.701930414018	0
0	3327	343352.830133367703	2221.2571784809
0	3330	343382.878288312983	1394.6585966381
0	3335	343872.927650280236	861.77111287398
0	3338	343919.314940255991	217.78671373462
0	3347	345498.982997262376	0
0	3356	346315.10329008799	13.879573606595
0	3361	347551.933073879357	0
0	3366	348730.739908104863	0
0	3391	351734.880808573245	0
0	3396	352283.990755443045	212.61210055702
0	3411	353301.686001463615	503.12529851822
0	3416	353594.571570951806	338.93225758831
0	3421	353686.242615086139	215.72571615962
0	3424	353803.941023839316	121.45200883615
0	3429	353908.927766804762	0
0	3444	354508.836966518369	414.48035607889
0	3447	354907.319289842152	590.78933748376
0	3460	356916.697985067362	0
0	3465	357675.378882940318	0
0	3490	360414.317984728872	1528.1264118781
0	3493	361129.508133982178	1701.8054732594
0	3496	361183.751144502896	1149.2283711075
0	3513	363197.553585878414	0
0	3518	363546.07509510612	116.31002168171
0	3531	364456.789185997826	0
0	3536	364720.946072728764	0
0	3541	364801.184933724478	0
0	3548	365192.386304057715	337.39850370941
0	3553	365480.128828649953	572.87590239727
0	3556	365903.71759350606	483.55685847747
0	3563	366796.592509911569	774.22942356212
0	3566	366948.648206721587	589.98230541713
0	3589	369694.334790889441	1419.8658045067
0	3600	370627.914828303141	1280.773548631
0	3613	372719.166432114955	0
0	3622	373146.141093414602	0
0	3635	374097.122887340442	85.686179511773
0	3640	374189.607669629262	0
0	3659	375400.030115728333	506.64429731102
0	3662	376182.562353290924	1266.6870168921
0	3667	376651.399459590737	0
0	3672	376756.058921908066	42.003558351076
0	3677	377939.793915432021	0
0	3706	380160.237759940869	1196.6591895222
0	3709	380438.37539183343	888.68916268897
0	3712	380445.694438483597	351.88511283742
0	3721	381111.129316965684	0
0	3726	381803.337137952476	0
0	3735	382872.865941392049	228.87450409489
0	3740	384686.847451502909	0
0	3753	385815.630394584797	0
0	3774	389991.317668321169	0
0	3783	390561.854685775861	0
0	3788	390843.727858035473	61.83125242102
0	3793	391834.915311768539	505.06908379059
0	3798	392308.96021823085	0
0	3811	394440.986571984148	0
0	3816	394716.030983617019	0
0	3833	395427.131007630839	578.26359441172
0	3836	395451.663259450191	584.0153494819
0	3839	395495.198445076314	393.23426471552
0	3864	397107.783775624642	727.47448523721
0	3873	398300.516249114852	0
0	3878	398647.63517375556	0
0	3891	400760.694559041978	0
0	3896	401195.969107782655	0
0	3901	402130.034175722918	0
0	3906	403105.742686430364	176.95677507209
0	3915	403828.175925426499	546.07428869943
0	3936	404882.430639877659	0
0	3941	405542.461545728834	0
0	3956	406865.867292375019	431.05188303872
0	3959	406924.014179628663	489.14895358676
0	3968	408289.604342834709	0
0	3977	408625.991307269602	0
0	3982	408913.608496655151	0
0	3991	409412.362242798439	0
0	4000	410852.109740454477	0
0	4009	412801.297053241641	0
0	4014	413030.610965747235	44.500920643506
0	4035	414125.804727342703	114.54279663344
0	4044	416759.128133343357	0
0	4067	419716.588935593734	2409.3206508124
0	4070	419847.947317324204	1493.87707746
0	4073	420109.639647981539	1161.1166363431
0	4078	420789.458462670133	1622.4888067271
0	4081	421422.631616897845	856.46531692677
0	4094	423216.198549652008	0
0	4099	423774.98406105127	324.20939496049
0	4104	424632.03185975988	0
0	4109	426542.50384830763	0
0	4126	428007.304931988988	1201.1447710434
0	4129	428192.094260807639	1047.1476834927
0	4136	428497.179772179833	1136.3020273724
0	4145	430202.263732081563	0
0	4154	430951.303169872927	91.834539076197
0	4165	431605.683017060778	171.84464123048
0	4168	431863.845917491235	406.60957098712
0	4173	432576.252046657877	0
0	4194	433542.003633870782	756.47907066665
0	4209	434375.679546804047	1439.9678064904
0	4220	435683.232692578122	2249.9664186778
0	4235	436691.267940794028	2078.1265355495
0	4240	436804.161093615959	1769.2108599921
0	4243	436808.8576473594	838.62234081229
0	4264	438294.986627268607	1764.204941933
0	4271	438565.167989892089	1816.6586242625
0	4274	438639.089046783328	1597.8852649751
0	4281	439037.1080570151	1810.1820809625
0	4284	439122.8932087115	1100.5601422292
0	4293	439675.974845409031	170.37322308187
0	4306	441300.236903476455	0
0	4315	442537.448861898122	0
0	4320	442649.978192829256	0
0	4329	443661.092642422428	0
0	4350	444908.644091046917	591.87999016355
0	4355	445167.36759306862	558.8242900474
0	4358	445402.87873424295	666.8575999061
0	4361	445463.884763429446	554.82833233464
0	4366	446044.687837233336	0
0	4393	447979.454043681113	837.66679578461
0	4398	448246.085850786372	650.44666296354
0	4401	448530.134942488517	374.66252749256
0	4406	448905.512831577257	0
0	4423	450723.431141480474	166.18124725763
0	4428	450739.462781551118	0
0	4433	450945.782674237393	0
0	4438	451086.61086758336	0
0	4443	451427.569455177182	178.71171797329
0	4448	451851.444268978804	0
0	4471	452938.932461381774	967.48163145763
0	4474	453196.979288403195	830.01860703551
0	4479	453519.342599948628	0
0	4500	456065.90205781755	7.9871042954619
0	4525	459197.045798360085	3111.2971824335
0	4528	459659.807098763037	2269.4591840516
0	4531	459801.567700225437	1174.3110725356
0	4536	459889.759343219418	19.635929429438
0	4545	461210.979954980175	1253.4056306599
0	4562	462430.642826399595	366.62573748769
0	4565	462709.088138374483	424.39276608446
0	4568	462760.593793217419	397.50069599476
0	4585	464142.892120745806	534.81420398713
0	4590	464331.13050315907	0
0	4619	467536.312381017018	2021.1182453908
0	4622	467698.379851289745	1392.7921448171
0	4625	467995.099738413728	1647.493062661
0	4642	469289.253436493347	0
0	4647	469500.443700824153	0
0	4652	469861.519594800582	50.108268638549
0	4657	470126.690862718219	10.94029319624
0	4666	470498.296502096654	134.57078924018
0	4677	471496.884124646639	115.33178052038
0	4680	471520.183052183296	43.512251362845
0	4687	472106.425290448415	571.15291131986
0	4690	472117.570694248457	567.38883014052
0	4707	473799.238944087084	1519.0301599741
0	4718	474948.419177238532	280.90772915707
0	4721	475307.674530935125	631.80836091336
0	4738	476749.986451821273	1076.551503007
0	4751	477985.77674507657	701.35115222924
0	4760	478668.471435876189	0
0	4777	482408.845421883017	0
0	4782	482706.664314941535	0
0	4791	483800.785740964195	0
0	4804	484595.378231425596	0
0	4809	484775.77620700274	0
0	4814	484909.576191120396	74.317174493568
0	4823	485481.680848724086	0
0	4828	486080.007823320488	0
0	4833	486861.7169816397	0
0	4850	490276.338386418685	0
0	4863	491670.448897658196	0
0	4872	493552.849813019137	0
0	4877	494392.200482761117	0
0	4888	495117.215246037303	353.55788322201
0	4891	495409.009584716772	423.57798191003
0	4908	497918.460482272971	0
0	4913	498465.011842030491	0
0	4918	498702.231243582151	0
0	4931	500602.031140526652	0
0	4948	503551.243168024933	265.23141957296
0	4953	503896.033550301511	0
0	4966	506449.00972433946	0
0	4971	507580.523020352983	0
0	4980	509025.435907114039	0
0	4985	509624.694145087317	0
0	4994	510520.611424117324	0
0	5003	511630.203840845001	0
0	5016	513514.025358853428	17.436201218399
0	5021	514117.080241698226	0
0	5026	514429.158215108108	0
0	5031	516104.446693791956	0
0	5036	517805.538222078614	0
0	5041	518508.066850386636	508.04203337326
0	5046	518965.171574569369	99.33602362487
0	5059	520201.65378532951	0
0	5072	520661.60952043092	447.96301475586
0	5087	523963.848758294568	456.51065493113
0	5090	523968.828692788343	77.60835859197
0	5105	526025.67527520558	349.98092686618
0	5108	526132.164008810121	312.16897543275
0	5121	527853.81477192946	669.35770170961
0	5142	530791.611759606754	0
0	5159	534573.285243229691	0
0	5164	535162.869709716284	3.8668583633844
0	5177	537108.544595661393	688.93361704401
0	5180	537169.956822937859	131.19671370555
0	5191	538509.415289497604	1467.0044910765
0	5194	538535.588424178161	575.00924659765
0	5203	538949.411918623857	706.23463278636
0	5206	538962.996589516478	306.00711768086
0	5227	540241.387709379769	1108.7777320725
0	5230	540417.38021655527	1152.2677056661
0	5233	540859.438160706143	1091.2187468251
0	5242	541322.189455648981	0
0	5259	542503.63138518126	863.20501179551
0	5262	542524.446714524448	694.5403817551
0	5265	542712.49159967018	421.14208853408
0	5272	543213.521210039354	277.73091270903
0	5277	543339.400570713874	287.88805983483
0	5280	543642.820606454011	362.69785505999
0	5309	546832.992692197237	0
0	5328	548427.148633705013	1501.4844141604
0	5331	548569.556621050239	1174.9214625295
0	5336	549178.336465518816	0
0	5341	549936.259138072391	0
0	5366	553184.306042557827	0
0	5371	554403.45850613543	840.25849533349
0	5384	556479.166681012677	0
0	5389	557878.931605331732	0
0	5394	560012.280427884355	0
0	5399	560513.449017756447	24.203168527223
0	5416	562603.864857658947	775.93222952413
0	5423	563227.605297628334	999.0382640278
0	5426	563250.385720906743	657.15409319801
0	5431	563600.208965421707	547.98558724846
0	5436	563924.144856719895	795.79993596103
0	5443	564476.243437239745	1024.5340018674
0	5446	564538.490417844725	616.11009418219
0	5463	565345.005872092767	79.256600657012
0	5468	565566.629144411358	63.036455253372
0	5503	569722.462540203	1872.9552289563
0	5506	570425.107599584164	2447.687328084
0	5509	570552.122424440278	2220.5499829296
0	5512	570745.516820604964	2364.5277437986
0	5521	571130.362877912957	0
0	5542	572717.460015685465	423.26406485634
0	5545	572986.783053700927	679.94517075364
0	5550	573534.277569575836	1217.0957614408
0	5553	573646.585186814117	643.22206288576
0	5562	574328.346866122627	0
0	5581	575992.969020903218	1337.704157769
0	5584	576226.126350674303	1427.8216258496
0	5597	577126.560827846454	398.30918495962
0	5602	577315.379007917703	512.55131940427
0	5605	577404.544546901976	342.0554190753
0	5608	577478.57680626679	331.6005858857
0	5613	578165.21711122508	0
0	5626	579442.973476674633	274.35768573324
0	5635	580665.284993548185	0
0	5640	580918.656613772058	0
0	5653	581578.80502882016	150.84332757676
0	5658	581919.053644534014	0
0	5675	583174.435826670839	0
0	5688	583907.952324477495	0
0	5701	585500.610165366416	0
0	5710	587273.661974399599	0
0	5715	587702.49269873768	0
0	5720	588871.093770781904	0
0	5733	589579.277042299931	616.80259597069
0	5736	589596.393999537031	350.27552736353
0	5751	590448.43851823512	936.0083601384
0	5756	590499.8813588873	860.58010481705
0	5759	590787.550864894763	341.55332630605
0	5762	591066.290136575191	569.02271876635
0	5767	591146.131342400474	66.406690952834
0	5772	591402.78983798672	0
0	5805	593377.945524263664	1372.7831014895
0	5834	595154.513270718853	2875.7764446387
0	5837	595372.125766280455	2541.2937595674
0	5846	596135.509935278409	2756.5199187741
0	5849	596330.042961838927	2281.828072736
0	5856	596645.017203253896	1562.0350651761
0	5861	596694.717302159243	1086.6537701496
0	5864	596761.738751014472	83.128592803376
0	5887	598741.607493850031	339.6393037606
0	5890	599083.850625416769	381.81943078956
0	5895	599319.43602421146	106.05139421613
0	5900	599643.510818755424	0
0	5909	601221.853999276582	0
0	5946	604056.042807971071	2654.3188245659
0	5953	604305.507850548331	2262.9766080809
0	5964	605681.188753006782	2240.2865587103
0	5969	606098.916070171004	2576.7103562012
0	5972	606145.80412972248	2570.9233067008
0	5975	606221.131705132233	1675.2166644608
0	5978	606235.983334890757	615.4562606836
0	5995	608330.855890647943	2502.0499416812
0	6004	609033.926612734093	1847.726955303
0	6007	609495.47513789268	618.06888967264
0	6016	610229.577762559881	0
0	6025	611258.899321087906	0
0	6036	611735.293548797028	206.10165545205
0	6039	611852.923108907349	146.91551825532
0	6044	612127.303398563571	0
0	6057	612784.255617681592	591.77502001484
0	6062	612989.665179093585	0
0	6073	613571.701963980382	573.27491648041
0	6076	613701.917506745938	416.76499615482
0	6111	616375.459538652294	1086.8314375634
0	6114	616375.763676734583	670.08455085964
0	6117	616980.103221731606	1145.496376613
0	6120	617274.056527246203	1241.9283373232
0	6135	618636.259311916947	1244.7156808922
0	6138	618703.304171733918	757.43318530358
0	6161	620741.673075160104	462.59834082471
0	6164	621036.011136087788	715.8621572064
0	6169	621613.493042243813	163.03992745618
0	6182	622898.029178964958	0
0	6187	623505.48505525284	0
0	6192	623577.556025602432	0
0	6197	624148.094939444786	0
0	6202	624806.485744664202	0
0	6211	626735.275475050998	0
0	6238	628038.434197903287	973.35256020294
0	6247	628700.885835729064	1032.5955091104
0	6250	628857.302350366195	413.51128113177
0	6255	629339.557172284375	413.90218706592
0	6272	631982.048571509357	172.06563964032
0	6277	631992.603455484595	10.45408230694
0	6282	632915.669957870171	0
0	6287	633496.087599919523	0
0	6292	634543.731343404748	1015.2411967107
0	6307	635649.196008654599	742.94228491164
0	6310	635757.865296978407	345.06889160001
0	6343	637865.216533878602	1720.8116034333
0	6346	637978.172872254133	1191.7220872879
0	6349	638067.318624309043	1124.0921950061
0	6352	638144.352619373143	509.69818238949
0	6363	638597.434036563521	823.02257262554
0	6368	638932.16269344642	128.33538830141
0	6381	639747.287499605503	0
0	6386	640200.059737400323	160.11845435505
0	6397	640874.152140682749	136.85271608399
0	6400	641089.791162962536	228.33382962737
0	6405	641267.047536995537	50.938388908166
0	6410	641664.932247670474	0
0	6415	642122.943396423277	314.9003336333
0	6458	646414.813200107945	1787.223596726
0	6463	647810.862438756874	3026.4939904502
0	6468	647988.093505126383	3017.2583927936
0	6471	648095.202437524603	2999.639185911
0	6516	654795.470651241521	7590.9914625445
0	6519	654841.767901183001	6858.8444139998
0	6522	654975.447995281083	6286.1711904652
0	6527	655670.174737315128	6893.7802074221
0	6530	655912.42726406453	6586.5981736736
0	6533	656146.404613575255	4647.9607357272
0	6536	656305.383909748122	2883.2605105244
0	6553	658449.552136897842	4949.4734426721
0	6582	660988.199209739709	6935.8767267469
0	6587	661291.878181241177	5789.3568990399
0	6590	661359.970135135123	4698.2830753655
0	6605	663155.411831715038	4606.7521257752
0	6612	664636.623134024774	5629.6811899053
0	6615	664873.567349896958	5778.3178354115
0	6618	665196.505164459293	3991.772973255
0	6623	665420.739248916366	3715.9140358698
0	6628	665917.505148933586	3158.5426104347
0	6631	665961.161322904236	2625.3225936677
0	6634	666144.991629775803	1726.7104950929
0	6637	666276.87128420743	1077.4171657085
0	6650	667277.119394216228	1720.2924206988
0	6653	667285.089914960725	594.58588788204
0	6672	668073.21303424593	110.30401058169
0	6675	668125.660220017024	138.0533059655
0	6680	668897.299160840742	0
0	6689	670080.369049116502	0
0	6706	671392.854862422205	1065.4686435024
0	6711	671638.290409337886	0
0	6716	671795.785952734252	0
0	6729	672247.006330750791	442.38738525833
0	6768	675989.884591414807	2752.8651354084
0	6777	676640.684004507725	3071.9399028517
0	6786	677235.037966776937	787.8643860278
0	6791	677588.995460226062	903.2380882107
0	6794	677785.209706483568	547.98143409088
0	6803	678359.854268842994	492.60292394634
0	6808	678671.852607308663	0
0	6817	681437.620307815409	0
0	6830	683192.599528477477	0
0	6839	683985.767394030468	58.751157984603
0	6844	684476.968041202806	0
0	6849	684738.34705391673	169.08230901067
0	6874	687299.813060063748	0
0	6879	688674.006339986574	499.38347796712
0	6884	688946.314454371943	0
0	6897	690735.459963731525	0
0	6906	692282.622344341167	0
0	6911	692437.007108976685	0
0	6920	694592.668919427172	0
0	6937	698987.818010737863	0
0	6942	700509.029470020491	0
0	6951	700925.124743599808	336.14612919034
0	6960	702339.869194127468	1594.5996728303
0	6963	702523.049353548427	1688.4804584159
0	6966	702590.170507238908	863.45005692309
0	6971	702630.366506806397	0
0	6992	704763.496436587758	1675.7324211338
0	7011	706847.756118089243	1076.3904110417
0	7014	707035.855937701982	1206.2011071437
0	7019	708314.198840673263	0
0	7030	709435.879898169346	625.14780616469
0	7035	709916.624909444996	572.11937984766
0	7038	710024.860489454869	410.95941568096
0	7043	710784.654758487805	0
0	7056	712486.310997476064	0
0	7079	713792.835980193125	86.378320252057
0	7082	713861.160092726317	124.21776306699
0	7087	714131.161653052344	64.184684978332
0	7104	716941.362653488037	0
0	7121	718012.951780839836	956.77291093429
0	7124	718067.296724383041	615.94856744865
0	7127	718211.199541271531	231.7594583251
0	7132	718420.947024073641	44.467611470493
0	7155	720068.96286541035	1244.9950950987
0	7162	720966.161811337202	2127.3770854394
0	7165	721180.866454689392	1659.0134319679
0	7176	721953.2312134951	2247.0111503416
0	7183	722200.346607149007	814.15012083284
0	7186	722274.702028070033	426.87124910788
0	7191	723236.151874321001	696.70477570686
0	7208	724923.716534621245	0
0	7217	725949.967523848397	0
0	7222	726044.406996443974	0
0	7227	726889.95878372082	0
0	7256	729505.28642701088	0
0	7261	729876.015526127218	277.42534613842
0	7266	731431.254948533486	0
0	7271	731618.902339347596	100.76023968915
0	7276	732063.032503134552	0
0	7301	733556.008425525761	1441.1422972558
0	7304	733581.955484998503	1111.080316373
0	7307	733657.045451689943	1104.7135599309
0	7310	733868.445163601973	1077.6718279691
0	7315	733961.65751253391	927.23222523753
0	7318	734317.307705908424	425.07213417278
0	7337	735708.729540317746	169.90602830914
0	7340	735891.911122388454	322.81708155188
0	7345	736234.122058781861	0
0	7350	736368.606306783436	120.32803660422
0	7375	738372.283942257899	1476.3252641589
0	7384	738994.380864262361	1594.4146501657
0	7407	740290.253257059257	1945.8790936283
0	7410	740304.321474354171	1896.4955573988
0	7417	740791.63096010106	1675.9018604433
0	7420	740938.853453733195	1561.8782804644
0	7423	741296.862731796499	1890.183971977
0	7426	741480.89923696401	1849.2647421596
0	7429	741916.900608250996	1504.1904305478
0	7480	745903.969089352069	5228.507447093
0	7483	746029.741308832406	4027.299664268
0	7486	746750.917253271599	4622.0474634477
0	7491	747311.868880564975	4758.2278117464
0	7494	747409.340987843268	4844.8015984694
0	7497	747577.329348728192	4404.969676199
0	7512	748698.543366743294	5415.7401876288
0	7527	749812.010389528947	2931.4000813664
0	7530	750132.420061336941	2384.5763265141
0	7533	750427.868158352758	2427.5060899705
0	7546	751293.967974997835	0
0	7551	751715.99716954337	0
0	7568	755892.249165898169	0
0	7573	755934.310577460068	0
0	7582	756409.504650262588	1.7663566183764
0	7587	756741.783842365147	0
0	7600	757364.44496199461	462.57203755889
0	7605	758504.714131838199	0
0	7614	759757.337024966243	336.22707220167
0	7623	760901.775037131456	0
0	7628	761508.324136928308	0
0	7637	762427.870649596901	0
0	7662	766905.373630352756	384.46151408192
0	7667	766934.037251009491	0
0	7674	767890.104386772239	895.2863945734
0	7677	768311.883937594755	979.51019658893
0	7686	769664.728949624092	956.31022497755
0	7691	770165.213684424093	0
0	7700	770471.427182076225	0
0	7707	770883.663996592967	346.49032307765
0	7714	771457.071267372817	671.22292022267
0	7733	772823.520833695377	1002.0761529086
0	7740	774031.118015566419	1232.0903547382
0	7743	774210.516435088775	980.1973492254
0	7748	774474.614741479483	990.09361485357
0	7755	775026.414176987829	637.45307220821
0	7760	775375.534409687905	0
0	7781	777729.611248867853	0
0	7790	778385.151064597315	0
0	7803	780116.515778198706	0
0	7810	781545.082938863186	931.9452511901
0	7813	781699.529275363809	466.72908845101
0	7818	782153.086806474317	192.20489394199
0	7841	783428.144401445132	964.7683785744
0	7850	785272.23243096897	2504.3449012694
0	7853	785283.562008336419	959.46680472244
0	7858	785601.688082000421	174.07388737623
0	7867	787036.116618510392	402.25405810459
0	7872	787116.171476211299	0
0	7895	788935.467443507318	1285.904291153
0	7898	789316.383043932959	1264.393979241
0	7907	791175.569637173842	0
0	7926	793628.307107398145	865.05881725461
0	7929	793631.432609808044	462.06940102275
0	7938	795500.206739732734	0
0	7949	796108.192763847393	151.93513160513
0	7952	796141.878524490276	143.23154829792
0	7957	797206.464743256594	0
0	7972	798070.147466164502	625.37867690332
0	7985	799078.141761227972	1096.8182697097
0	7996	799830.121174129807	1463.1408388496
0	8013	801841.47827998776	982.26791015337
0	8024	803179.823115837762	802.11628612154
0	8031	803757.03467517655	1111.6916703434
0	8040	806455.057221532065	0
0	8053	807459.373154883721	571.52553147892
0	8066	810081.823786561155	68.406027843943
0	8071	811088.458707874289	0
0	8084	813206.459999140143	0
0	8089	815252.796449159029	0
0	8094	815569.387096045951	0
0	8099	815685.521748911812	0
0	8116	820032.269972084187	0
0	8121	820324.522125728561	43.426708755433
0	8126	820681.745722058885	142.4321192404
0	8133	821390.476501718625	617.96186860604
0	8138	821633.420816302124	760.15609616018
0	8157	823923.501902490661	2445.0925705145
0	8162	824515.895883459011	324.01510651549
0	8167	826190.9735418234	0
0	8172	826601.299549750583	171.09111380694
0	8189	827648.522188142575	819.31279579783
0	8194	827882.601549357009	0
0	8201	828602.638438511783	282.16966337233
0	8226	832103.954781849951	3729.3704744936
0	8229	832257.639652120299	1645.9873688516
0	8232	832513.44569257153	721.02663632645
0	8235	832599.690591462081	698.52327858063
0	8244	833822.399467968254	0
0	8257	834938.771004431657	218.8025047133
0	8264	835140.597722043342	134.38013165328
0	8267	835178.762693346455	44.292451870744
0	8282	836185.454118846449	622.1196384955
0	8287	836687.824032658231	702.57342983189
0	8292	837310.483429753466	903.24248686223
0	8299	837415.384091488144	655.19798793644
0	8304	838003.49927541488	0
0	8313	839029.315141412966	0
0	8318	839342.317113633379	68.60175970674
0	8335	840702.336860649882	0
0	8340	840966.598487785146	94.553375309217
0	8353	841607.223564253684	104.2374933844
0	8358	842039.880996058567	0
0	8383	844805.752194883297	2449.6820454368
0	8394	846701.635339209438	4018.7942335972
0	8397	846794.670377738472	2157.7259789073
0	8406	847286.976798198044	1005.2587583319
0	8431	849566.510431115499	2894.4940214129
0	8434	849775.43793281796	2859.0985533287
0	8437	849888.705527523346	1765.5545959022
0	8440	850332.64362142506	1581.3488958557
0	8447	851084.762076338203	1604.0235183049
0	8466	852322.363411926306	269.94204085856
0	8469	852459.33882063765	204.3792050943
0	8484	854073.92467867029	914.36097941175
0	8499	854992.149088096048	1116.8854076593
0	8508	855692.889733333905	0
0	8521	856874.387676548038	521.59513840347
0	8526	858888.013095112848	0
0	8531	859726.519733882153	452.48598657479
0	8536	860524.456403560861	0
0	8541	860546.891689715789	0
0	8556	862313.349536659209	684.15623670525
0	8559	862691.913452885264	917.6918319884
0	8582	865243.639265154311	372.56800143048
0	8589	866025.678046214982	1027.3529810318
0	8598	869664.941545912849	0
0	8607	870772.588511840695	0
0	8616	871313.627693586242	0
0	8621	872424.839582034377	0
0	8626	872534.33737411653	43.342052405118
0	8635	873342.486888840075	0
0	8640	873996.386032537469	342.10914895195
0	8655	875197.537514542031	540.24822241208
0	8662	875851.228376140638	1045.175372922
0	8669	876817.239532262713	1477.1890176093
0	8676	877034.455495394243	1208.0425528993
0	8685	878027.996159108673	1129.6999085568
0	8688	878121.214866819854	1096.2479763821
0	8699	878418.637663790734	965.86507067573
0	8704	879055.576630931991	768.82929754979
0	8707	879352.484388561416	970.88053825835
0	8710	879559.220960824057	743.2994168764
0	8743	882268.534007125122	549.8279878326
0	8756	883750.435130973326	0
0	8761	883818.107759220825	0
0	8782	886910.168812450767	0
0	8787	887168.110697990996	240.40152188344
0	8792	887640.157361250492	0
0	8801	891141.976442617348	0
0	8808	891655.757789561983	224.57507436257
0	8811	891874.245633348142	298.40588163794
0	8820	892588.180166451047	204.99270204583
0	8839	894830.376343505083	2177.7711764525
0	8848	895093.550253427446	397.30598971795
0	8855	895359.894149362526	445.1789920294
0	8860	895412.893072025713	28.277740722755
0	8865	896165.178148250637	0
0	8882	898338.159845533374	1450.1586025537
0	8887	900235.468722789188	0
0	8892	900520.748364686302	0
0	8903	901530.086580724431	722.3812724665
0	8906	902182.870949037759	828.15935307485
0	8945	905319.654354845123	806.78556297894
0	8948	905575.89164281425	600.70579901023
0	8951	906133.896618101977	1135.4655343149
0	8954	906276.749921640779	1021.3068094009
0	8959	907226.125155342295	0
0	8964	907860.579544580412	0
0	8981	908970.359399075831	0
0	8986	909304.813578420913	0
0	8991	909597.688623866917	0
0	8996	910017.866533073886	0
0	9021	912045.110116138017	0
0	9030	912715.050551395972	0
0	9035	912828.278595284347	89.03548632923
0	9044	913989.052655435572	0
0	9059	915418.243730841495	544.91556695581
0	9064	916000.613495710242	762.13162234437
0	9067	916280.869088044489	682.57146944897
0	9072	917919.499436302966	0
0	9085	920992.931848491421	0
0	9094	922777.463170737801	0
0	9101	923285.882690746313	342.26523439272
0	9104	923340.632137124054	352.0906385869
0	9109	925074.314954846284	0
0	9134	927063.165836113949	1725.5553401955
0	9137	927426.240102071717	1728.2862278399
0	9144	927528.372320781447	1298.6667481855
0	9157	928210.001960995741	0
0	9168	929131.583694985065	822.11744504748
0	9177	929791.11724969347	835.12174806569
0	9182	929986.402487492954	644.8100599536
0	9185	930115.170462179033	130.40726599947
0	9198	931453.106993544075	255.63985604269
0	9203	931637.664707059442	0
0	9226	933802.838495835753	1138.2347879483
0	9229	933880.786075405005	536.4917315332
0	9238	934220.7850762038	0
0	9259	937145.917693071423	319.52676154859
0	9264	937942.119204077551	0
0	9269	939952.395070066393	0
0	9282	940849.634390791184	690.85386625177
0	9287	941176.192003022317	0
0	9292	941552.474496071578	0
0	9301	942469.532359040272	0
0	9310	943484.516749256145	0
0	9315	944199.902301715209	0
0	9336	946102.418434897236	0
0	9347	947821.464785357589	1432.4926360102
0	9350	947855.638503571045	760.56532699731
0	9357	948537.743680599231	1298.2348074032
0	9360	948718.54061513738	1179.9971807206
0	9365	949284.586823307544	0
0	9370	949335.464991440837	23.246572423261
0	9401	952059.073398000088	1839.6427925467
0	9404	952167.885970459701	833.32250836573
0	9417	952915.336241903632	1260.2235764024
0	9436	955203.770652680743	3541.534175324
0	9439	955475.381775049596	3258.211518022
0	9446	956103.791155898714	3466.9535750774
0	9449	956113.680268073702	3454.4928002806
0	9460	956809.524332339033	3469.7872415347
0	9463	956838.999123228823	2764.3286124613
0	9468	956903.49987134679	531.60051638656
0	9471	956923.781787485646	148.60326098755
0	9474	956945.047312185996	85.488936838927
0	9491	957925.735527320759	437.45424650249
0	9506	958803.397717453921	846.41545825207
0	9509	958944.60759853861	837.50915702665
0	9522	959222.044961525341	1092.7942403494
0	9543	961435.239368764466	2807.1470215167
0	9546	961713.505550410147	2707.8818120402
0	9549	961768.676376525378	633.39140069287
0	9558	962700.408641347021	688.99837623315
0	9581	965676.723582704598	3657.6201008102
0	9584	965837.973100449801	3524.3802753616
0	9591	966590.436848387789	1154.3895684007
0	9594	966655.843192259934	1007.9306324186
0	9603	967177.430263122604	472.85458016628
0	9606	967231.897070821473	416.65507766604
0	9619	967705.768060634007	796.28502139216
0	9632	968353.56753504889	669.44125904457
0	9649	969428.923795511127	1436.8402970525
0	9652	969446.305870944217	384.72612822684
0	9657	969758.644851858831	0
0	9684	972514.259433574928	1752.464679017
0	9687	972518.226453512573	597.33048375545
0	9704	974993.639097348704	396.85562205804
0	9711	975124.264613718979	84.283899689093
0	9716	975567.258211612037	524.84131046128
0	9719	975770.482769141138	496.23948828329
0	9724	976211.903299196692	0
0	9733	976757.9444675165	0
0	9746	978048.025336759247	464.53625202202
0	9759	980870.413878923969	66.273240933195
0	9764	981603.816479083814	0
0	9773	983219.022281681244	0
0	9790	987824.04263166538	1643.4364027506
0	9795	988396.986071380067	0
0	9800	988512.672214814469	100.3720820779
0	9809	989402.72181016659	0
0	9814	990475.80600696375	0
0	9819	990998.713796877277	0
0	9836	992510.967956950545	0
0	9845	993550.895212822561	0
0	9872	996027.018686444964	1834.4626424069
0	9877	997274.846000566285	2141.0471930207
0	9880	997329.221342857323	1829.6509552391
0	9883	997403.849852341194	1877.7008346753
0	9886	997590.332366307925	655.99245301425
0	9917	1001352.947033310595	2150.7072955549
0	9920	1001655.729776845693	2361.4184361815
0	9923	1001878.365550522971	1880.358229065
0	9926	1001889.703516317757	1366.5820397851
0	9943	1004776.87715370766	0
0	9948	1005437.360124027925	0
0	9953	1005872.107845864882	0
0	9962	1006937.732808577205	0
0	9967	1008416.750720262472	0
0	9980	1009361.786107520049	859.27935267228
0	9983	1009474.194745850108	415.44085157639
0	9986	1009479.665615089929	188.29839697038
0	9999	1010869.470524568354	0
0	10004	1011344.800116217942	0
0	10021	1012172.068404608975	130.11592567049
0	10030	1012920.615299610179	0
0	10043	1014885.057799967116	0
0	10056	1016847.076202407325	0
0	10065	1018756.115213568558	0
0	10070	1019624.164999152548	0
0	10075	1019982.318554336494	0
0	10094	1021456.444879593333	1345.20249185
0	10097	1021676.06262760403	1098.4151765674
0	10110	1024124.960267200433	0
0	10115	1024832.975071114253	0
0	10128	1027074.283009543381	392.66070295195
0	10137	1027556.466378223315	0
0	10148	1028692.391699088228	507.18211061333
0	10151	1029027.244242323413	412.73667799844
0	10168	1030914.473509322619	0
0	10173	1031617.525420311376	0
0	10182	1032319.106946258964	0
0	10187	1032498.047465959391	62.949738262803
0	10200	1034746.237093528565	0
0	10205	1035773.691064697406	0
0	10218	1037367.909052085605	0
0	10223	1037678.060853721871	5.5547821006039
0	10244	1040778.415188044639	0
0	10249	1040817.949698758567	0
0	10254	1043088.665413977921	0
0	10261	1043287.409166816911	87.675228482462
0	10266	1043410.030384175506	177.26728258794
0	10273	1043998.405953554507	664.36590022617
0	10276	1044247.690723866736	740.76465200458
0	10299	1046240.651931121173	2391.2660055532
0	10302	1046532.977743291663	2240.0009261934
0	10305	1046847.200278389105	2299.4582690282
0	10310	1047283.320440481462	0
0	10319	1048027.913771724593	0
0	10346	1050527.095863300866	2178.1374641702
0	10355	1051305.739268030641	825.36842119764
0	10358	1051391.349184723566	753.55910380441
0	10363	1051487.460262354834	68.690552790416
0	10372	1053375.579325985287	0
0	10381	1054195.610553248516	0
0	10392	1055142.305421097592	414.52236083662
0	10399	1055661.656120306911	689.1938053288
0	10408	1057118.61612388564	0
0	10421	1057901.269948638998	0
0	10432	1058614.428751017407	555.99378554639
0	10437	1059195.454000032514	995.11418701522
0	10440	1059198.703068690875	24.471559638157
0	10453	1059795.042396557816	252.78511118307
0	10458	1060064.517914559529	0
0	10467	1060948.532280527988	0
0	10472	1061034.784772193488	14.639352081809
0	10477	1061423.641796062396	0
0	10502	1064289.876124943422	1793.207311007
0	10513	1065041.234418473286	367.41934979404
0	10516	1065132.35082545125	202.73798759654
0	10525	1066826.615160417846	0
0	10530	1067049.490326781666	186.49574647588
0	10537	1067544.097433489296	168.61035069986
0	10540	1067687.631713254133	256.5100966813
0	10545	1068087.227665815752	0
0	10550	1068143.948765647438	0
0	10555	1068723.30109091442	0
0	10580	1070965.601344183286	97.538807396544
0	10599	1072711.05246203628	1659.5830812617
0	10604	1072890.385227765642	626.95128730848
0	10607	1073001.114454103309	224.22512437822
0	10620	1074831.943960702439	0
0	10625	1075228.371434813246	209.49451652006
0	10634	1076023.743634494848	0
0	10657	1078000.088583163672	845.94890977279
0	10660	1078053.499998919537	221.86763869342
0	10669	1078620.649939007093	122.7906065078
0	10674	1078824.601771453976	0
0	10679	1079172.446535293244	0
0	10700	1084748.765642143028	0
0	10705	1084815.314438999759	63.754875729093
0	10710	1085156.301594422355	0
0	10715	1085974.915228807941	0
0	10720	1086547.408337737535	0
0	10725	1087489.881367679892	0
0	10734	1087917.569862586746	0
0	10739	1087925.666512131963	3.4138300186023
0	10768	1091422.032932606192	0
0	10781	1094584.613873261694	0
0	10796	1095954.380197563784	1197.0042125459
0	10801	1096291.157058120971	552.56004528841
0	10806	1096614.855523966911	518.52733920328
0	10809	1097097.351890483052	688.78771088016
0	10818	1097519.167351458067	84.13114438788
0	10845	1098707.342283424669	1071.0669238535
0	10848	1098762.550265408278	1067.5106697555
0	10853	1100034.74551646348	0
0	10862	1100875.867891177523	0
0	10867	1101208.849152953278	0
0	10876	1101793.318807068227	0
0	10881	1102541.201278019321	283.29936150787
0	10886	1102860.43075095821	301.86125969328
0	10923	1107075.088289453561	3614.2126306933
0	10928	1107293.841272137749	3587.8495096581
0	10931	1107535.994566850474	1838.0982959894
0	10934	1107557.599537273769	1209.3612526311
0	10937	1107666.544575627068	808.27452711947
0	10940	1107859.18790311273	588.04168222332
0	10949	1109718.470839486105	76.60636224784
0	10974	1111767.635276886522	1576.984844076
0	10979	1111939.076640769676	941.40895503224
0	10982	1112227.697298247341	859.49909242475
0	10989	1113126.363100503597	1249.4351415006
0	10998	1115386.517888378342	338.75372226886
0	11009	1116128.831466332593	272.50517043006
0	11012	1116137.43450002737	152.2072597919
0	11017	1116379.192750737493	0
0	11022	1116470.826828516816	0
0	11035	1117509.885858535121	75.984789353097
0	11044	1118137.147427084886	324.6454527427
0	11075	1120807.567121616695	2044.2682525115
0	11080	1121252.18996790258	1684.1957994851
0	11083	1121304.436578336548	184.48971299711
0	11092	1122088.698278815157	0
0	11097	1122552.60107382178	0
0	11104	1123372.402134459687	364.16349026421
0	11107	1123541.660431705032	498.96186951408
0	11136	1129552.82016970961	0
0	11149	1133382.96617387584	72.246760361362
0	11154	1133701.048936874994	0
0	11159	1134236.068351903568	0
0	11168	1135900.825886026788	514.55561787356
0	11181	1137883.549427575365	0
0	11186	1138797.012490108202	0
0	11195	1139800.392658771543	0
0	11200	1141309.633918464	0
0	11209	1141832.856506714776	244.0460773129
0	11226	1144954.044059637552	0
0	11231	1145701.278641727546	0
0	11240	1147686.139365149771	0
0	11261	1150516.637162582745	0
0	11266	1151818.31397752286	0
0	11271	1152093.917738901191	167.19132038625
0	11276	1153005.062667574993	0
0	11281	1153419.667765917765	128.61269109929
0	11312	1155470.779684693855	1811.8787210644
0	11319	1155775.794310969428	2039.8346326402
0	11322	1155885.617422319116	2005.8379415991
0	11331	1156367.667041942459	1183.4978786944
0	11338	1157158.108159206726	1915.723751328
0	11341	1157263.180702165237	2001.061651666
0	11344	1157276.971208868053	1765.6041555735
0	11347	1157671.561503855295	2027.3257556525
0	11350	1157805.509824272328	1651.7574795433
0	11387	1160821.347999232701	4395.8361513636
0	11390	1160845.06666965773	3755.2317534953
0	11393	1161011.375281193159	2077.8155240933
0	11396	1161790.164968717293	1521.7491443856
0	11399	1162247.393341793601	1801.0189263148
0	11428	1163581.633545254377	266.16337472969
0	11433	1163826.569094332124	0
0	11440	1164296.166927330155	357.28404996311
0	11445	1164837.204099304958	544.42566364678
0	11450	1165252.041092310358	857.40665749926
0	11453	1165316.091902233056	133.38254914014
0	11458	1165984.477774795037	0
0	11491	1169326.414756953575	861.34521242836
0	11496	1169696.318163762889	0
0	11513	1172240.189737271002	0
0	11518	1173936.567890055078	0
0	11523	1173985.111150831321	0
0	11532	1176456.737834033365	0
0	11537	1177272.914630608784	0
0	11550	1181100.390358668913	137.53486465709
0	11559	1182964.260028186802	0
0	11564	1183423.705674619269	0
0	11573	1184790.237908176661	0
0	11584	1185460.566346245156	239.60952410544
0	11589	1185665.000868533747	230.14476239844
0	11592	1185922.72501510361	343.91911695013
0	11597	1186882.137409707987	0
0	11606	1187921.614489919635	0
0	11611	1188110.222527072837	0
0	11624	1189083.819363507921	11.198883903911
0	11649	1191133.8519775142	0
0	11662	1192916.711744025318	0
0	11671	1193129.446971046282	204.6609784204
0	11674	1193381.630998757103	364.75837451615
0	11683	1193746.952866082527	644.97017899062
0	11686	1194026.710741451727	304.88829479902
0	11695	1194590.714666379452	0
0	11708	1195676.355919630314	302.56933392049
0	11713	1195807.567874314186	0
0	11726	1196531.921275904225	475.51448589913
0	11729	1196996.638451092971	848.83776756492
0	11732	1197271.810680936947	957.36954927212
0	11753	1200090.182889774756	0
0	11770	1202169.299953558599	312.30610318249
0	11787	1204658.263221697147	759.19719335949
0	11792	1205124.090614612226	1170.7383648749
0	11795	1205182.58909013474	944.62344513927
0	11804	1206367.799085981035	1557.3880169736
0	11807	1206622.672802464454	1235.4378525808
0	11812	1206970.720043618822	1472.6856843098
0	11815	1206984.484641103667	898.34234804055
0	11836	1208994.735762032242	2358.9147115909
0	11843	1209563.092766682866	2288.2084051513
0	11864	1212900.05241683455	2106.0413626148
0	11873	1213871.233906637533	0
0	11878	1214367.258060120865	0
0	11887	1215505.806020466818	1043.7649830643
0	11892	1216213.247162932708	0
0	11899	1216617.458744249682	367.79942122241
0	11902	1216764.096064604834	402.12797145452
0	11907	1216956.939913896979	0
0	11912	1217241.724565965948	0
0	11921	1217793.395107779544	0
0	11926	1218258.845342143223	0
0	11931	1218500.246126087566	0
0	11942	1219052.399566757158	92.692122327397
0	11971	1221821.795295720149	2807.4809811334
0	11980	1222596.072830114479	2580.1810850769
0	11983	1222981.102326841192	2846.220141958
0	11994	1223857.567287494359	3342.2642933507
0	11997	1223915.842669250977	1651.6591744137
0	12000	1224006.68715156622	616.64986213599
0	12003	1224600.764936569997	751.4833891571
0	12022	1225972.566770431639	1205.8295537576
0	12025	1225978.558743317736	779.55889421585
0	12054	1228095.115895492573	2437.6303871914
0	12065	1228722.209572929964	3044.7272778123
0	12068	1228844.903531064239	2658.7307645842
0	12071	1229090.451221422002	2481.6312260262
0	12076	1229456.240307918319	1989.4629744219
0	12079	1229611.102566565616	1169.1318636052
0	12082	1229925.308226840747	1417.9830715852
0	12089	1230643.856271653033	1252.924701358
0	12098	1230946.365005966101	0
0	12133	1234319.758386612217	1165.4181232932
0	12136	1234729.084753418207	621.0640412108
0	12145	1236169.479096720426	1058.7551216932
0	12162	1237424.338203374684	1147.3241934986
0	12165	1237522.092585148606	892.5624893792
0	12170	1237683.245571692143	360.83973369002
0	12173	1237684.385838388984	19.872872182168
0	12178	1237769.876001601823	0
0	12191	1239382.364903899822	0
0	12196	1239849.693256292378	0
0	12205	1241195.401262608491	0
0	12214	1241663.241013000611	0
0	12219	1242054.766911576641	94.429873927729
0	12224	1242588.907411639348	280.09265347361
0	12253	1244954.850013591524	1519.6771941702
0	12256	1245179.330093151109	1716.7900793417
0	12279	1246774.189796704305	2569.535232034
0	12282	1246784.163622003244	1376.5974817427
0	12289	1247306.946406501146	1440.1470309179
0	12310	1249188.163530717203	3216.7016550438
0	12313	1249329.105077901161	2676.4743167239
0	12316	1249494.273267521564	2002.6744398354
0	12321	1249935.597043043986	2363.8208536161
0	12328	1250248.535700077258	1583.4793729382
0	12335	1250665.174129159542	1014.0329187959
0	12342	1251129.428629007207	571.74199909274
0	12345	1251414.391581331795	829.6304354358
0	12366	1253996.390258198512	533.73623063765
0	12385	1255563.39459511005	120.00538062002
0	12388	1255660.11138830117	118.59349655174
0	12401	1256572.988123307137	0
0	12410	1258389.785507241847	0
0	12423	1260387.151476837928	0
0	12430	1260753.267821370142	339.45406746538
0	12435	1261200.626513705302	785.72528811009
0	12438	1261333.667350204203	229.78095056233
0	12455	1263621.559167405483	26.382715844549
0	12460	1264061.307552124569	0
0	12481	1266920.995111443868	0
0	12486	1267589.446486173024	0
0	12495	1269021.528523181696	0
0	12504	1269430.387342537196	0
0	12521	1273784.216046692339	0
0	12526	1273974.495104172548	0
0	12531	1274369.463863510396	0
0	12544	1275235.621003865606	848.77984568174
0	12549	1276084.344754340438	0
0	12554	1276741.454572570463	0
0	12567	1278066.806148859621	0
0	12576	1279731.886446743572	0
0	12585	1280879.252754038427	0
0	12594	1281299.690657852728	0
0	12603	1282202.862606961623	0
0	12608	1282429.788315750947	0
0	12613	1282760.329666498752	0
0	12630	1283631.637047612841	795.74334508413
0	12635	1283917.112242555789	387.65058530658
0	12658	1285407.318207627008	1797.6025763364
0	12663	1285524.848354611667	1626.2348312174
0	12666	1285537.12475721877	1413.2832814618
0	12675	1285966.57316904067	1834.8765866074
0	12692	1287445.716196227703	3219.1810872268
0	12695	1287621.87548576401	3372.6053671427
0	12698	1287643.550857751009	3117.1358231071
0	12711	1288288.609800524751	3621.9574983818
0	12714	1288558.915173109639	3830.6678831219
0	12717	1288725.634953900602	3348.4404999348
0	12726	1289005.073362000926	3566.8086177923
0	12729	1289132.329617894242	3467.3775674608
0	12732	1289261.774203891782	1850.9465698267
0	12743	1289887.638825552204	2061.707991641
0	12746	1289978.77900277103	1993.6555333505
0	12749	1290053.887973593828	2017.749011131
0	12760	1290229.360609723087	1454.9885539117
0	12769	1290953.575037610453	0
0	12786	1292289.907704253729	0
0	12803	1294236.072152706277	0
0	12808	1294784.675415465864	0
0	12835	1297923.758173605724	1090.9347733737
0	12842	1298295.565926136568	1312.9013513771
0	12851	1298972.836205150632	1626.7940139887
0	12856	1299212.748223385658	1666.3310653919
0	12859	1299390.841419840837	721.20785369212
0	12862	1299570.267768489375	390.0028946416
0	12881	1300373.711726334447	692.35312219057
0	12898	1301457.709791674028	1100.2060512269
0	12905	1301953.848309010022	1273.1584540214
0	12908	1301986.558360709132	918.93852325599
0	12917	1302707.870981989674	1574.5398550788
0	12940	1304648.114629263842	2145.9951854825
0	12945	1304690.528742976151	1695.2881052636
0	12948	1304730.758295055308	484.16726283845
0	12951	1304900.967305187665	211.98545009294
0	12964	1307047.163274287235	0
0	12973	1307767.262312519972	562.75923820212
0	12976	1307819.721005509613	588.77597863763
0	12983	1308287.048061129078	668.11138976226
0	12992	1309653.297074004745	0
0	13019	1311452.938925782172	1709.1868804179
0	13024	1312758.135600839941	2565.7188567529
0	13027	1312968.913460970204	932.63252266729
0	13040	1313958.329347616507	25.935496021528
0	13049	1314923.650322071618	0
0	13064	1316669.814262940541	689.8179857817
0	13067	1317225.075773693681	1052.4055213383
0	13080	1320105.670028640396	0
0	13093	1322357.612212926163	0
0	13098	1323639.330126998553	0
0	13103	1324419.397090598317	0
0	13108	1324922.066742799819	94.597575702472
0	13137	1327830.156402027246	2454.9298162817
0	13142	1328580.610182840539	2579.635394207
0	13147	1328799.466439493866	1873.1068644023
0	13150	1328826.989074431674	1475.6236255604
0	13153	1328891.863964066942	1276.7413671864
0	13156	1328933.130407529956	909.41550857457
0	13167	1329545.911675302698	801.37896177266
0	13172	1329944.844766190406	928.2167284165
0	13177	1330031.805762034837	887.87082977034
0	13186	1331073.195807918235	1312.6528055097
0	13189	1331435.114568199644	1473.1616708692
0	13194	1331686.310855986901	693.96015413431
0	13197	1331919.439719139429	277.59614436468
0	13238	1335282.257439774805	3348.0787408182
0	13251	1336265.207000458432	4238.7069675946
0	13254	1336848.521037961717	4153.1989162231
0	13287	1339894.129566383964	5480.2079279916
0	13290	1340258.841292714545	5732.5448822677
0	13305	1341283.518056816372	6304.138142461
0	13308	1341343.095949358287	6206.963736007
0	13311	1341345.485302521894	5970.520127173
0	13316	1341635.235326050253	6217.1266710777
0	13327	1343065.764734632117	6855.1894851809
0	13352	1344113.122828095078	4724.4303182012
0	13355	1344137.392986404547	3512.3531382924
0	13358	1344156.757465473812	3528.2365764931
0	13361	1344273.397173824804	2799.7595416727
0	13364	1344446.871372809237	2796.1851208908
0	13369	1345323.350556861016	2894.0301519106
0	13372	1345913.108491540209	2629.7003744917
0	13375	1345915.802281259522	2464.5894934393
0	13378	1345919.00772725629	2391.4106695002
0	13387	1346655.980746335559	2084.8193191739
0	13390	1346682.682533437727	188.94657259225
0	13419	1349881.048675023226	0
0	13428	1351025.497677110624	0
0	13433	1351869.704981157878	0
0	13446	1354923.342624335273	0
0	13451	1355281.597528824171	0
0	13460	1355919.279996720159	0
0	13481	1357379.971012083048	0
0	13486	1357701.497627824837	0
0	13499	1359330.59753814029	0
0	13504	1360048.256166391783	0
0	13509	1360531.216041066658	0
0	13526	1362935.138517223911	0
0	13531	1363723.836708366057	305.23282776447
0	13536	1364132.6818438378	52.076883787056
0	13549	1366563.310150674033	0
0	13554	1366843.113007467615	0
0	13583	1370092.904925399089	2097.07522717
0	13586	1370177.093914818009	292.32763087237
0	13595	1370830.309727188651	915.43416002882
0	13604	1371149.178452840547	815.72571630706
0	13613	1371718.655484536715	885.67419522093
0	13616	1372000.203185753806	1165.9760150923
0	13623	1373321.4208332191	2398.4541123784
0	13626	1373342.569386175257	2163.4624997431
0	13631	1374636.831559550167	0
0	13664	1378210.070703599941	3228.4778836733
0	13667	1378421.480005282563	2669.337643692
0	13672	1378652.089685264192	1138.270770658
0	13675	1378715.140002138515	272.59245490725
0	13686	1379430.63900898345	436.01520224032
0	13701	1380938.325993704353	1535.7461632283
0	13710	1381792.733835244407	1860.914574259
0	13713	1381897.267514122574	973.86252755322
0	13716	1381971.076112989183	679.00668234681
0	13721	1382055.509559497837	0
0	13742	1383968.847072446686	0
0	13747	1385310.071250457688	0
0	13764	1388098.372093819359	177.48270629602
0	13769	1389994.135576490223	0
0	13790	1394574.027211298609	246.66343504982
0	13795	1394951.604173017337	158.01424536202
0	13804	1395497.448173225265	278.34405533061
0	13813	1397250.482545362448	0
0	13822	1400324.105214366109	26.455856389366
0	13827	1400798.912400690602	440.69577223039
0	13832	1401770.891147607602	0
0	13845	1402811.920508336841	0
0	13850	1403825.368026265235	0
0	13861	1404502.481530481549	440.63363527064
0	13866	1405208.15841267227	893.50847751391
0	13871	1405565.144098354364	553.82932478236
0	13874	1405584.752628186421	353.90115173906
0	13883	1406565.514904387665	0
0	13888	1406728.936200282496	0
0	13905	1408375.17173887171	410.7839333415
0	13918	1410508.796735263216	239.69440644188
0	13927	1411550.392191842723	131.01219852199
0	13932	1411866.666159105341	133.8623950216
0	13943	1412974.248082466864	647.89179832372
0	13946	1413020.790769674802	151.30357234529
0	13951	1413137.293516173503	73.676461695693
0	13956	1413676.638804766872	0
0	13961	1413883.751996108223	0
0	13974	1415239.018024880765	0
0	13983	1415929.070868795644	0
0	13996	1417602.53678397245	0
0	14001	1418120.867459556153	0
0	14010	1418859.671239580484	604.03309259191
0	14041	1422350.165338118696	774.9024131936
0	14046	1422573.669173984827	497.37385137356
0	14053	1423900.625888834321	1502.2631611282
0	14058	1424063.889809633434	0
0	14063	1424179.729467887151	41.803349329391
0	14080	1425671.464562534033	0
0	14085	1426884.975660049501	45.458185282536
0	14090	1427045.871760689752	109.11282573757
0	14111	1430272.150508541496	0
0	14116	1430495.401926749028	70.200038293842
0	14129	1431796.505140761419	0
0	14134	1432122.927163346877	0
0	14143	1432707.418513243374	329.1162576105
0	14146	1432798.650751193474	349.83367457683
0	14151	1433088.599879128652	606.26131943916
0	14154	1433271.781584427386	291.92362458399
0	14159	1433450.044278856311	0
0	14180	1434327.874535837774	775.35566540598
0	14203	1436466.199815748082	1022.1567196448
0	14208	1436858.952590141023	659.05934279133
0	14221	1437204.557219622344	495.60334335268
0	14224	1437206.364913902616	242.61939154123
0	14229	1437339.086665664121	74.565269837622
0	14234	1438081.193023771334	0
0	14255	1440545.413989517322	0
0	14260	1440657.936983475718	0
0	14277	1441989.55461067375	0
0	14294	1445341.941547356256	0
0	14299	1446191.668674216035	0
0	14308	1448618.550042744254	0
0	14315	1449114.062726799898	493.10009155306
0	14318	1449382.927547029098	314.44308892381
0	14331	1451481.380038877517	0
0	14336	1451730.956814914536	0
0	14345	1452739.279989394798	0
0	14372	1454761.892900541911	1763.2210600297
0	14377	1454962.676102449534	1735.2200654978
0	14380	1454985.243491254304	1163.3609494492
0	14383	1455565.288274764663	1720.8476041618
0	14394	1456083.033600866792	2201.8598799482
0	14397	1456740.847397017474	2852.9269660953
0	14406	1457629.12386761619	2822.4542595467
0	14411	1457690.267515617196	523.05493783904
0	14434	1460097.269808662671	2457.7728312183
0	14439	1460361.364840482463	1658.6030043061
0	14442	1460446.469207876858	1317.2319506048
0	14465	1463128.2892950856	2899.8998785983
0	14468	1463370.894152070425	1650.8496669817
0	14471	1463548.134813359504	1012.2391787732
0	14476	1463794.756094380253	147.76197699108
0	14481	1464559.563935998053	219.08622991946
0	14504	1467755.236754288607	637.00162321026
0	14507	1467853.367807470612	187.90421320498
0	14516	1468101.718532468205	45.865367646795
0	14521	1468880.949649339526	0
0	14530	1470931.428417866319	0
0	14539	1471886.826402533019	0
0	14558	1473632.427135806511	423.02074899105
0	14561	1473710.138314110929	80.546967579285
0	14566	1474027.635416638461	0
0	14591	1475119.857797052079	99.229607983725
0	14596	1475895.406942838574	0
0	14601	1476444.797131575353	0
0	14610	1476757.645641345962	6.4181373885367
0	14615	1477594.17274931742	762.93144295318
0	14624	1478698.428450522235	0
0	14637	1479139.951386083531	202.57739717839
0	14642	1479373.936757438635	329.22438555583
0	14653	1480080.708653113006	959.60992980027
0	14656	1480509.638647935853	1173.6122211181
0	14659	1480567.254344635121	881.45770820929
0	14698	1485414.404307053752	5546.6664280014
0	14701	1485539.947908417644	4821.6938378143
0	14706	1485983.038341471965	4800.4907205952
0	14709	1486029.893368153203	4434.8986405267
0	14718	1486382.0527690927	3556.3928943635
0	14727	1486760.502428990048	2768.9315567273
0	14730	1486816.92109502	2151.7324113261
0	14737	1487177.421359476347	1492.1832415164
0	14742	1487343.784278200034	1056.627344487
0	14747	1487693.688476063154	1265.8681640995
0	14762	1488427.229830242884	1998.9180103154
0	14765	1488514.895951311912	1921.0075821173
0	14768	1488524.950824350772	1432.3867247934
0	14787	1489972.615853779923	2820.1071307056
0	14790	1490170.006401897779	2958.4008121639
0	14793	1490247.364768493108	2759.4795344714
0	14824	1491904.499571305555	4206.4520018494
0	14827	1492070.332128379951	3986.8523329934
0	14830	1492301.673193975604	1793.5414821049
0	14833	1492441.200527209152	1849.9200484587
0	14836	1492494.643181283225	1685.0416395448
0	14839	1492626.337917495657	987.04504330549
0	14852	1493513.143219134978	114.97245041677
0	14857	1494525.941053317246	0
0	14898	1497520.226954198596	1532.6765014655
0	14901	1497819.840719118321	1678.3436292489
0	14904	1497871.009676320955	1573.5088173465
0	14907	1498239.608816893131	1565.2245408886
0	14910	1498387.218038251925	875.22756128665
0	14915	1498681.269876154639	0
0	14920	1498890.812298725639	98.918213235214
0	14937	1499863.511753284493	91.863112045918
0	14954	1501658.114795201777	715.07825635723
0	14971	1503183.633209675764	506.02262330381
0	14986	1504433.461712266176	842.68704705616
0	14989	1504482.022205717744	163.33642685553
0	14998	1505822.57369653625	0
0	15003	1506039.145764462296	193.08749945974
0	15008	1506433.527523490918	0
0	15013	1507058.159587303359	571.50591624202
0	15022	1508703.798837319772	0
0	15027	1508778.90205312515	0
0	15072	1513180.835628611898	4356.386187101
0	15077	1513367.27291879675	3887.6028825915
0	15086	1514494.863902800715	4703.2835583792
0	15101	1515475.102149348432	4417.2843141779
0	15104	1515599.407290793783	3411.6838512765
0	15107	1515805.729349585636	3588.4809108176
0	15112	1516160.086719206048	3455.5130361407
0	15115	1516212.932780264691	2959.2953850508
0	15118	1516538.489399469768	3113.9494225392
0	15121	1516664.255470482274	1672.0828742355
0	15128	1517296.826319652602	2202.5894734329
0	15131	1517387.921143679506	1299.6821729729
0	15160	1519535.754868097122	1917.4043610529
0	15175	1522013.360339226017	3684.4808968278
0	15182	1522466.034349605394	3560.4114428593
0	15189	1523258.396923514257	3552.9403919172
0	15192	1523593.961448878987	1962.9751465977
0	15197	1523760.833456358713	88.655802325346
0	15210	1524861.608749595599	0
0	15219	1525631.87304889445	0
0	15224	1526106.324959621594	0
0	15243	1527336.490809384955	737.08402518556
0	15250	1527790.148774328273	769.88032058743
0	15259	1528490.436748691155	377.6937881934
0	15264	1528765.174053174949	0
0	15269	1529162.913923160204	0
0	15298	1531304.822511424423	163.01982756518
0	15307	1534389.592199096237	0
0	15316	1535592.587133972377	0
0	15321	1537444.869193860247	0
0	15332	1538106.962909819552	657.44405846554
0	15339	1538517.824770391939	914.9662962202
0	15344	1538901.029500583508	231.95349082234
0	15349	1539706.245927200511	0
0	15362	1541973.877070260892	0
0	15367	1542164.673499538138	159.59819697146
0	15372	1543120.577745469397	0
0	15393	1545209.59451386814	140.85231028963
0	15406	1546443.303090603325	1199.2354001564
0	15411	1547331.987552041489	410.87247617845
0	15416	1547613.172633337907	97.413973398972
0	15427	1548357.991807972885	199.98311010562
0	15430	1548358.346639151803	64.266557485098
0	15435	1548417.028055388752	0
0	15444	1548817.274664848334	0
0	15457	1549713.837057814182	22.241234753979
0	15478	1552181.427974309787	0
0	15483	1552431.60772460826	3.9713742742315
0	15500	1554738.766798121806	0
0	15505	1555635.715149360807	0
0	15510	1556401.452784923687	466.53090613731
0	15515	1556999.927449808786	0
0	15520	1557373.388374260953	0
0	15525	1557647.728414762109	173.23882791447
0	15534	1558299.630320414312	0
0	15559	1561100.825771921895	2217.9321277926
0	15564	1561854.859201337008	0
0	15569	1562647.676056885269	0
0	15574	1562850.691551231144	59.073450863827
0	15579	1563110.485311942825	55.591945944354
0	15590	1563610.372746803807	288.22702790191
0	15597	1564511.698983833881	987.58678175439
0	15602	1565385.27828572126	0
0	15619	1566449.139826057318	149.72013458516
0	15624	1566908.775232591716	0
0	15651	1570447.215020067214	2251.2423740439
0	15654	1570466.645570086734	207.64826080319
0	15659	1570659.405931370142	0
0	15664	1570844.088467865901	0
0	15677	1571954.760491931289	0
0	15696	1573470.522918615449	831.11748503312
0	15699	1573635.368251227918	199.26765745902
0	15704	1574053.52799824016	261.99464158947
0	15717	1575429.826734575713	145.55932970997
0	15722	1575626.799214247084	0
0	15727	1575919.986200402075	87.765025276458
0	15732	1576365.178498705708	0
0	15749	1577924.86701516156	127.26461468544
0	15756	1578639.139520086	330.75779416109
0	15763	1578815.996066009765	228.79241898144
0	15768	1579125.249190585168	140.11038882099
0	15777	1579309.616232550163	5.6986781086307
0	15802	1581522.201677220604	0
0	15815	1584964.314368015701	0
0	15820	1586148.547176622806	0
0	15825	1586479.745757429971	288.80332706776
0	15830	1587361.202658191519	0
0	15835	1587550.577871101895	0
0	15840	1587858.709442678115	0
0	15851	1589454.133478098116	933.21004110924
0	15854	1589455.288845041489	158.50994348503
0	15859	1589867.604307014573	146.38925705338
0	15872	1591112.231802720703	31.65241593984
0	15877	1591330.062481446401	0
0	15894	1593003.588073446339	244.6592331857
0	15917	1594857.537687622783	1060.2214603319
0	15926	1595365.677690761962	1188.1983590084
0	15929	1595566.448847955163	393.25175773725
0	15938	1596499.327089206071	0
0	15951	1599484.687729145269	0
0	15964	1600682.951644546249	0
0	15975	1603017.588272792347	436.83589454927
0	15978	1603045.074251753448	327.00334018469
0	15991	1608087.683041346949	0
0	16000	1609939.779055025021	43.538258647546
0	16009	1610722.315256133567	420.3456301901
0	16014	1610825.932573766688	0
0	16019	1610904.03243539645	36.43930630316
0	16024	1611467.290917514475	0
0	16029	1611821.425074785853	0
0	16056	1614119.223475196738	1762.4097701083
0	16059	1614263.830530700493	1288.7207532958
0	16062	1614312.176953279261	581.99122123839
0	16077	1615069.52607272854	1169.2596756415
0	16080	1615344.1825344383	570.31696429034
0	16095	1617071.198528282015	2217.3100320233
0	16098	1617230.421796739917	1755.9716707517
0	16101	1617366.367199141727	1349.3872559492
0	16126	1619101.78152315846	1270.5658620626
0	16139	1621096.146912427752	836.65651267674
0	16144	1621399.77295941337	250.94877181319
0	16149	1622445.176632106546	0
0	16154	1623206.468469884194	299.40429466707
0	16161	1623866.290493301782	623.32856256538
0	16164	1624202.706090336975	474.60860191681
0	16177	1625869.153187749666	165.76535542309
0	16182	1627202.027086966431	0
0	16201	1629217.196995701721	939.73458870035
0	16206	1629389.109267029743	726.44222461432
0	16225	1631231.04071055564	2008.2154462284
0	16228	1631445.68663977509	2009.0523868105
0	16231	1631459.039733157646	1745.7749347161
0	16236	1632528.720116798463	2760.357829446
0	16253	1633969.140303569788	3429.5472248802
0	16256	1633969.909039600307	1551.3947240917
0	16259	1634213.763327105032	1600.1379884246
0	16272	1634870.575440414303	0
0	16277	1636087.215317873783	0
0	16290	1637251.557129625166	1049.1688613717
0	16299	1638856.818008748758	167.30094396626
0	16326	1642631.722805152563	3575.7462778853
0	16329	1642649.763321224902	2624.7940099903
0	16332	1643085.497524359025	2886.9875232039
0	16335	1643303.636783607369	1943.260347425
0	16344	1644229.753217520304	2758.511746279
0	16347	1644239.230472963248	2606.2490484028
0	16358	1645041.989248762007	1337.8797947739
0	16361	1645296.00167941269	350.59840976028
0	16364	1645296.691521939394	298.58528879634
0	16373	1645621.674331050788	4.4808035732713
0	16410	1649753.958755852076	593.81971154152
0	16415	1650053.013178362026	810.57935081446
0	16418	1650173.276744668793	839.56061206991
0	16421	1651361.068990383566	1587.7125000334
0	16430	1651839.480697225586	274.03013042989
0	16443	1652742.012813296544	0
0	16448	1653494.302624081496	0
0	16471	1656085.650735256374	1814.4244213365
0	16474	1656609.074412194534	1924.9862910723
0	16477	1656978.848728682829	1965.5092523354
0	16480	1657110.514069941343	1720.0108703817
0	16505	1659429.07176966775	0
0	16514	1660703.645902114359	0
0	16531	1661794.750769332766	323.0532496206
0	16536	1661988.341686172615	176.70183147606
0	16541	1664421.188643005421	0
0	16546	1665385.048184741854	0
0	16551	1666123.468995869037	0
0	16564	1666779.041573737215	0
0	16577	1667797.996940560233	270.47670938843
0	16584	1668200.966331910389	76.276584297651
0	16587	1668246.989056807219	75.025827872567
0	16610	1670569.690149212516	314.87951152632
0	16613	1670959.058467286133	605.33533192985
0	16618	1671081.718455111599	0
0	16623	1671939.466538671165	0
0	16644	1673729.456278413177	211.69212414185
0	16649	1674701.62639757428	0
0	16654	1675865.391141662657	0
0	16665	1677037.889829363583	920.71756554814
0	16668	1677401.514477811051	1248.9539890594
0	16693	1679164.279497846911	20.513095333008
0	16698	1680478.727580987733	0
0	16713	1682016.858752559434	321.46900036302
0	16716	1682018.516572654623	103.11561712064
0	16721	1682160.042122646303	0
0	16730	1684563.562327531881	302.39080502652
0	16739	1685191.776762972254	0
0	16760	1686543.129645365611	1311.8674722363
0	16763	1686705.585274416978	1100.6913462488
0	16770	1687302.61048375472	1333.1506493224
0	16773	1687310.437756613829	170.93651392078
0	16784	1688770.634345223333	1536.575652919
0	16787	1688873.869416872869	849.16478312016
0	16790	1689026.714354938599	421.07792726299
0	16803	1690012.786555788322	135.20729435491
0	16824	1691421.010055123892	0
0	16831	1692434.838462569204	753.15627930989
0	16838	1692801.159283063656	800.79717971757
0	16847	1694423.701984246237	0
0	16852	1694570.959456406328	0
0	16869	1699036.788926812715	0
0	16874	1699397.57751909412	0
0	16879	1699605.481098933371	46.115900483448
0	16888	1701072.593154171926	0
0	16893	1701719.960249219062	0
0	16906	1703266.64004339462	1410.5372936362
0	16911	1703648.233591962588	0
0	16930	1705428.981143651349	1548.596845329
0	16933	1705455.041785319909	1190.1346323229
0	16950	1707330.118006421924	3001.0075476517
0	16953	1707482.975252397667	2903.7430515049
0	16956	1707544.616071729704	1864.5131043412
0	16963	1708297.583066528722	1435.5223793285
0	16970	1708732.534935679015	1417.8530734677
0	16995	1710730.210962561623	0
0	17000	1711065.264567386265	0
0	17005	1711695.86850532882	0
0	17014	1712837.133236798243	0
0	17029	1713904.558987887144	618.96581559838
0	17034	1714185.962444236578	531.87389054568
0	17037	1714259.307644507294	157.49611113546
0	17042	1715272.812907447	0
0	17051	1716696.919492707195	0
0	17072	1718874.742184997645	658.1926470683
0	17077	1719318.494270312801	0
0	17082	1719539.416804239416	0
0	17087	1719885.08121876715	0
0	17112	1724150.930376560555	987.41043857625
0	17125	1726468.823564700835	0
0	17130	1726628.271534525512	0
0	17143	1728627.844016774371	0
0	17148	1728937.151863267469	0
0	17153	1730023.515908079703	0
0	17162	1730537.161233561731	335.26413698611
0	17167	1730724.983669376863	0
0	17178	1731359.541954658341	253.05517898919
0	17181	1731395.784507504993	80.222904102411
0	17194	1732728.273226139787	824.07241647108
0	17199	1733044.757459991536	156.38921089168
0	17208	1733896.766923511151	343.73739109654
0	17213	1734814.808784713272	0
0	17234	1736544.117327097629	0
0	17239	1737378.000546580888	0
0	17248	1739360.042147475723	0
0	17261	1740438.726756434838	462.70756155299
0	17264	1740542.044065078444	342.28979835147
0	17273	1742302.263387242254	1989.4598061056
0	17276	1742374.919136640416	1184.4094173128
0	17293	1743370.636794661627	797.84869613242
0	17302	1744329.39709434612	1650.2144202846
0	17305	1744690.212353351677	1402.2067874083
0	17340	1747598.147670529018	3757.2898538306
0	17343	1748349.406026208488	2776.1059556156
0	17346	1748588.818572887622	2665.3284497303
0	17349	1748600.980402683135	2547.1557584913
0	17352	1749013.743524570979	2617.4421412945
0	17373	1751366.357206674083	1950.5878819718
0	17376	1751765.963225189597	1757.1762083336
0	17385	1751958.703033513115	1341.7839324728
0	17388	1752065.665167848698	270.92042304762
0	17397	1752288.51233943108	426.17654085276
0	17404	1753533.547010631984	1606.6882158055
0	17409	1754364.13589439309	2141.4812476642
0	17412	1754489.790035522629	365.07693293854
0	17433	1756490.185803499784	269.6194024533
0	17438	1757415.157076286039	0
0	17443	1757781.000387094342	0
0	17456	1758389.527335145137	433.75506714801
0	17465	1761114.020416226393	0
0	17494	1764134.785381093038	501.19447324914
0	17499	1764312.306646916522	150.23090490443
0	17504	1764797.342537611416	0
0	17509	1765426.097716674171	217.13305875612
0	17530	1772913.88109129846	0
0	17535	1774317.477244849821	0
0	17540	1774515.228615801932	0
0	17545	1775081.740727000526	0
0	17570	1777083.303567343245	1312.5944138835
0	17573	1777202.714026650292	1361.2880689299
0	17576	1777607.388247480043	1457.4065364851
0	17581	1777845.321116422127	106.69380381005
0	17586	1778065.016824349236	0
0	17613	1780353.746105697827	882.16288238368
0	17616	1780559.034472134624	282.6712576272
0	17629	1781049.989716202218	122.39391040825
0	17638	1783220.301931596781	0
0	17643	1783266.524783099226	37.465396163985
0	17658	1785429.20517390379	727.64702043193
0	17661	1785458.853173064412	625.35880629718
0	17670	1785991.922261996627	0
0	17679	1787112.208132909571	0
0	17692	1788163.945622689492	314.5434007328
0	17701	1788852.264708532881	198.53978400747
0	17710	1790953.11763529181	0
0	17723	1792036.826679395388	0
0	17728	1792647.013648936085	0
0	17733	1793049.98709621806	0
0	17746	1794913.115200565928	0
0	17751	1795806.427406627119	0
0	17760	1797422.518651582341	0
0	17765	1797936.079133784524	0
0	17770	1798152.609258764908	0
0	17779	1799417.70649589204	784.41084795771
0	17788	1799960.812131047799	0
0	17799	1800866.424100232052	423.03269805945
0	17806	1801252.665007552307	798.25235042092
0	17819	1803182.014023080141	2698.2787777227
0	17822	1803311.124017470041	2476.5397502461
0	17825	1803411.263532061472	2520.038231161
[...]
3	21677	2197004.397757408056	0.0010946723649961
3	21683	2197712.082882073282	0.001094774888276
3	21685	2197846.54475686856	0.0010951629019515
3	21687	2197974.013133620391	0.0010955543539693
3	21707	2199366.963992811199	0.0010953151699736
3	21709	2199369.889212464796	0.0010957683888557
3	21733	2202808.788163402247	0.0010945117038552
3	21739	2203275.220448659453	0.0010947338660255
3	21741	2203424.35166852268	0.001095113611762
3	21758	2205232.342004647953	0.0010946692346284
3	21760	2205238.447041133623	0.0010951196698209
3	21769	2205918.581251231109	0.001095235345735
3	21779	2206790.695921651072	0.001095255659935
3	21788	2208100.33114127675	0.0010950589363619
3	21797	2208503.387282257508	0.0010953118813084
3	21799	2208669.795123192357	0.0010956821184151
3	21813	2209341.536111984485	0.0010958016044276
3	21815	2209580.567804881685	0.0010961356355546
3	21849	2212632.840697381584	0.0010950754935176
3	21851	2213419.530655757333	0.0010951380732065
3	21870	2214225.294767001123	0.0010951911739655
3	21878	2214457.187183824415	0.0010955280662189
3	21880	2214522.763360244793	0.0010959471901374
3	21882	2214615.381939160505	0.0010963529016375
3	21884	2214753.480740430288	0.001096736057138
3	21894	2216371.82122349054	0.0010963864351328
3	21917	2220053.405123267471	0.0010950187028789
3	21923	2221096.08933906217	0.0010949548791127
3	21931	2222912.042586776932	0.0010945102430453
3	21933	2223036.290169333474	0.0010948989050532
3	21935	2223084.959238039359	0.0010953247602532
3	21937	2223178.317683070863	0.0010957285704993
3	21947	2223762.988583783104	0.0010958901701804
3	21958	2225570.571996177286	0.0010954494234767
3	21960	2225657.241118539025	0.0010958560711596
3	21981	2229746.116990175082	0.0010942949878498
3	21987	2230441.200567340002	0.0010944023090046
3	21989	2230880.493602832896	0.0010946350586697
3	21991	2231472.109035441644	0.0010947929799831
3	22006	2235447.111311501485	0.0010932935910822
3	22025	2237770.395001566887	0.0010926053921624
3	22027	2237807.922152058889	0.0010930339354808
3	22029	2238270.438723492223	0.0010932548443054
3	22036	2239152.712185876129	0.0010932706763043
3	22065	2242997.90062808209	0.001091842305922
3	22069	2243403.194239293736	0.0010920908048501
3	22075	2244197.265850703631	0.001092149980439
3	22096	2246566.059451941028	0.0010914435343148
3	22100	2247036.149058627167	0.0010916602303117
3	22104	2247078.878228831799	0.0010920844941297
3	22117	2247477.774498847775	0.0010923356074333
3	22119	2247530.547505857833	0.0010927548916857
3	22132	2248604.348716619615	0.0010926777765072
3	22154	2249729.875031850616	0.0010925756142013
3	22167	2251163.390046634798	0.0010923240893452
3	22169	2251233.298229835557	0.0010927343700603
3	22211	2254063.603480581271	0.0010918059260617
3	22213	2254135.598239051083	0.0010922146839451
3	22250	2255896.959982341306	0.0010918051860043
3	22252	2255956.345186704618	0.0010922197165992
3	22256	2256097.149554138935	0.0010925947938399
3	22260	2256261.396516888243	0.0010929584682905
3	22272	2256849.684770800173	0.0010931166646354
3	22286	2258035.863675841479	0.0010929852974002
3	22297	2259781.769480512508	0.0010925833783355
3	22299	2260131.880325787225	0.0010928565812912
3	22305	2260510.078664113264	0.0010931161171643
3	22307	2260758.263023042929	0.0010934384451589
3	22319	2261240.811821719012	0.0010936473404651
3	22323	2261799.228073433338	0.0010938194554551
3	22327	2262019.652566919939	0.0010941549500648
3	22331	2262029.201723596677	0.0010945924120314
3	22337	2262202.045475448922	0.0010949508267638
3	22339	2262282.272947201176	0.0010953540279356
3	22343	2262435.66894983475	0.0010957217630637
3	22368	2264640.813224561843	0.0010950963991808
3	22374	2265119.903350380245	0.0010953062556778
3	22376	2265201.400046923001	0.0010957083109469
3	22391	2266159.503080276639	0.001095686334799
3	22393	2266341.233097086775	0.0010960397153457
3	22395	2266416.97992497115	0.0010964443092384
3	22408	2267666.960062523839	0.0010962809106375
3	22412	2268319.49990994496	0.0010964063925292
3	22416	2269595.567136896158	0.0010962305513923
3	22427	2270303.551056448544	0.0010963291665741
3	22449	2274810.905024160631	0.0010945964759095
3	22451	2274852.838418749339	0.001095015887591
3	22474	2276493.88809914932	0.0010946657985894
3	22476	2276948.89059355031	0.0010948862358303
3	22480	2277878.595248032471	0.0010948783684973
3	22489	2278791.408727589785	0.0010948786231352
3	22500	2280045.005525298593	0.0010947152332306
3	22517	2281289.723408664138	0.001094556282956
3	22521	2281558.629166214563	0.0010948655748167
3	22523	2281571.166780282413	0.0010952978528066
3	22525	2281793.285399051719	0.0010956294840542
3	22527	2282241.701235435618	0.0010958523799851
3	22529	2282425.257350336548	0.0010962023803157
3	22536	2283743.513552117729	0.0010960074917112
3	22540	2284107.248191837741	0.0010962707648611
3	22549	2286018.855749871074	0.0010957914864522
3	22558	2287519.402875642549	0.0010955098334247
3	22564	2288752.873931875454	0.0010953563526032
3	22583	2289454.817069585554	0.0010954573033287
3	22590	2290118.203309786157	0.0010955766372119
3	22594	2290424.138999750413	0.0010958668996111
3	22605	2291420.308778887968	0.0010958268940796
3	22617	2294329.566469898172	0.0010948732199206
3	22623	2295151.207548843985	0.0010949169674463
3	22635	2296068.507854720492	0.0010949150652081
3	22649	2299485.388820032961	0.0010937229748133
3	22673	2300400.75385677751	0.0010937224723917
3	22679	2301251.705180436712	0.0010937525844452
3	22681	2301267.977617229002	0.0010941793934869
3	22690	2302534.651237581552	0.0010940117659667
3	22694	2303073.750055984369	0.0010941898842531
3	22698	2304772.692348907703	0.0010938171943675
3	22719	2307863.24903802154	0.0010927857190201
3	22726	2308671.549758341619	0.001092836267794
3	22735	2313623.666969905601	0.0010909293659265
3	22741	2315472.716843776749	0.0010904900678086
3	22743	2315556.970671293493	0.0010908822507907
3	22754	2316808.57641203737	0.0010907245534776
3	22761	2318468.812506298046	0.0010903748139132
3	22767	2320379.314524993807	0.0010899080095091
3	22779	2323090.328228076578	0.0010890665633005
3	22785	2324472.579120864873	0.0010888491534528
3	22804	2325985.160923547927	0.0010885710031764
3	22815	2327248.287704504069	0.0010884098673023
3	22817	2327463.292555254971	0.0010887389752205
3	22819	2327470.796676696602	0.001089165115893
3	22828	2328207.95537286309	0.0010892497786324
3	22837	2329075.404924339448	0.0010892734492993
3	22856	2333262.8878577988	0.0010877471257987
3	22864	2334109.626854687326	0.0010877809554393
3	22876	2335601.272971063971	0.0010875143927152
3	22883	2336125.989735477817	0.0010876981854424
3	22903	2337587.822776505882	0.0010874457743285
3	22905	2337821.358104564055	0.0010877648932345
3	22919	2339467.440156529866	0.001087426974333
3	22938	2341240.299471619825	0.0010870306651455
3	22940	2341280.989664676102	0.0010874388897527
3	22953	2342636.257474055497	0.0010872366513896
3	22963	2343721.224995066948	0.0010871600140948
3	22965	2344380.845951998538	0.001087280679844
3	22967	2344381.985412441924	0.0010877067030318
3	23007	2347176.437981007328	0.0010868377675921
3	23009	2347256.231831118381	0.0010872268503934
3	23028	2348988.403231065547	0.0010868508318254
3	23030	2349075.458178671289	0.0010872362533557
3	23032	2349113.504617371251	0.0010876443368862
3	23051	2349838.927596695359	0.0010877341293406
3	23053	2350083.129223782095	0.001088046617672
3	23055	2350320.208556714723	0.0010883623391771
3	23065	2351512.150929571813	0.0010882359246957
3	23069	2351817.477194752108	0.0010885198468095
3	23073	2351910.290937964264	0.0010889020766939
3	23087	2354013.734129016838	0.0010883538880235
3	23089	2354293.836595465806	0.0010886491567707
3	23102	2355314.851068845035	0.0010886018057571
3	23115	2356492.968563828971	0.0010884819238664
3	23128	2357288.999613881172	0.0010885385713929
3	23132	2357921.7911874091	0.0010886705443726
3	23142	2358884.572465826015	0.0010886501314965
3	23150	2359494.766766134138	0.0010887924127592
3	23152	2359559.453610715837	0.0010891863716624
3	23177	2360108.612807738788	0.0010893566448797
3	23179	2360116.888024063809	0.0010897765331247
3	23195	2361371.789323260938	0.0010896208769977
3	23199	2361534.659346776673	0.0010899691816134
3	23206	2362811.575036069578	0.001089803362742
3	23213	2362882.753842139405	0.0010901937456741
3	23217	2363322.694579900178	0.0010904139353928
3	23231	2365188.175460245796	0.0010899766989992
3	23245	2366686.401860961929	0.0010897092229761
3	23254	2367759.735532099908	0.0010896375849639
3	23260	2368502.801729093487	0.0010897179425398
3	23262	2368712.638962636211	0.0010900435779035
3	23278	2369309.28699327755	0.0010901911431234
3	23280	2369443.535700005346	0.0010905514147382
3	23286	2369597.38518768516	0.0010909026217529
3	23288	2369719.732029596243	0.001091268290105
3	23306	2372135.475695951655	0.0010905785215497
3	23310	2372743.096807907477	0.0010907206951657
3	23320	2373425.263917079488	0.0010908285334956
3	23324	2374157.876453719048	0.001090913129951
3	23338	2376112.274791706687	0.0010904366883198
3	23347	2377742.346661023971	0.0010901097015999
3	23351	2378029.705761909854	0.0010903984898579
3	23366	2384414.48054856852	0.0010878981071291
3	23368	2384566.040597641091	0.0010882483251962
3	23387	2386140.056044415756	0.0010879495499118
3	23389	2386434.828799394265	0.0010882342013532
3	23393	2386556.102061576057	0.0010885979163682
3	23410	2389000.687958937941	0.0010879025749551
3	23414	2389952.306952146544	0.0010878878178601
3	23430	2392092.465999512853	0.0010873325496275
3	23439	2393706.699146001489	0.0010870170522263
3	23450	2394751.033330472085	0.0010869605916319
3	23452	2394789.526262527188	0.0010873606934735
3	23459	2395222.177789213417	0.0010875817801605
3	23463	2395306.768399447863	0.0010879608551106
3	23477	2396329.83341028652	0.0010879136768455
3	23486	2398872.096587175024	0.0010871775963839
3	23512	2401521.303380603862	0.0010863946933668
3	23521	2402730.413498198401	0.0010862641873335
3	23529	2403439.445925120441	0.0010863598017528
3	23533	2404323.777225693302	0.001086376146483
3	23535	2404369.1510620669	0.0010867715545451
3	23545	2405361.926922748688	0.0010867387442788
3	23574	2408188.635304691688	0.0010858783907803
3	23583	2408547.180789525161	0.0010861319308441
3	23592	2408889.569151325743	0.0010863926821361
3	23603	2409811.659728912758	0.0010863919549192
3	23619	2410982.110332357921	0.0010862793169539
3	23623	2411415.691841822704	0.0010864986940509
3	23627	2411506.501012054338	0.0010868724587307
3	23633	2411948.83096217092	0.0010870877384882
3	23635	2412082.711539284046	0.0010874419800995
3	23658	2413662.005100167767	0.0010871447594797
3	23660	2414010.183642583653	0.0010874022064145
3	23664	2414367.040129158254	0.0010876556697276
3	23666	2414612.527323594596	0.0010879592358082
3	23668	2414714.843454837059	0.0010883272644483
3	23680	2415603.963270787239	0.0010883406551628
3	23684	2416047.370037096398	0.0010885548158601
3	23690	2416293.120499614769	0.0010888579608487
3	23697	2419017.553920469034	0.0010880450188277
3	23706	2419627.835503036667	0.0010881838774402
3	23715	2421435.998549015287	0.001087784274116
3	23731	2424077.229266742106	0.0010870115721507
3	23733	2424541.740694132538	0.0010872157636046
3	23737	2426308.037408648337	0.0010868364442366
3	23753	2428880.691363706717	0.0010860969867231
3	23768	2429525.304962291038	0.0010862204211703
3	23778	2430935.252066318312	0.0010860017755537
3	23788	2432663.544687865434	0.0010856412946077
3	23799	2433977.781282904572	0.001085465948094
3	23808	2434499.846756912597	0.0010856439377151
3	23810	2434562.019736044035	0.0010860269644257
3	23816	2435382.759326547788	0.0010860715794553
3	23828	2437056.729700725689	0.0010857359074792
3	23839	2438895.470568343373	0.0010853273672213
3	23845	2439093.204953281779	0.0010856493694552
3	23851	2439557.111451789003	0.0010858528326986
3	23853	2439675.765796683051	0.0010862099124613
3	23865	2442535.590366145234	0.0010853475423065
3	23891	2444549.809888249188	0.0010848623289542
3	23900	2445021.639941823034	0.0010850619710929
3	23904	2445729.747498206687	0.0010851566910509
3	23910	2446711.74828554847	0.0010851298694505
3	23912	2446859.346936321107	0.0010854730997618
3	23932	2448146.560620125138	0.0010853108399388
3	23945	2450033.308993247836	0.0010848832096459
3	23957	2451708.473317863395	0.0010845498267588
3	23959	2451753.11876162283	0.0010849379489496
3	23963	2452335.575547983748	0.0010850880387385
3	23967	2452975.113395451214	0.0010852128036127
3	23985	2454183.825958938166	0.0010850857917945
3	23987	2454208.847417609752	0.0010854821922768
3	24001	2454803.826719708623	0.001085626464727
3	24007	2455513.726655572639	0.0010857198520454
3	24009	2455527.571019546252	0.001086120975173
3	24031	2456731.841202760404	0.0010859956122414
3	24037	2458187.941522481003	0.0010857591296892
3	24064	2460250.041656093043	0.0010852555450838
3	24080	2463222.559367347827	0.0010843518746784
3	24094	2463980.866908154613	0.001084424005026
3	24113	2465330.593378370274	0.0010842359264836
3	24119	2465393.682158758536	0.0010846137959024
3	24123	2465690.432576848372	0.0010848888265363
3	24130	2466007.065233130008	0.0010851550418194
3	24139	2466649.161294744148	0.001085277972241
3	24143	2467430.178320736033	0.0010853397285684
3	24149	2468639.990261080378	0.0010852129150337
3	24159	2469576.656757414801	0.0010852062407809
3	24174	2470658.013990627015	0.0010851360183474
3	24176	2470725.565339293308	0.0010855110893839
3	24180	2470784.083397517606	0.0010858901099568
3	24182	2470815.701664328885	0.0010862809387977
3	24198	2473226.171530192525	0.0010856265516302
3	24217	2474403.855374726112	0.0010855139892244
3	24219	2474484.775987386441	0.001085882615272
3	24238	2476155.464352063441	0.001085553810614
3	24248	2476733.804591281926	0.0010857040813249
3	24250	2477052.21643158451	0.0010859682255206
3	24252	2477109.396044260952	0.0010863468542396
3	24254	2477238.884702380035	0.001086693744646
3	24276	2478419.911592735364	0.0010865793917341
3	24278	2478456.798853653021	0.0010869666968761
3	24296	2479254.665561409803	0.0010870202393628
3	24303	2479471.406697743529	0.0010873285300719
3	24307	2479604.636595543364	0.0010876733976845
3	24316	2479925.402557373928	0.0010879359504999
3	24320	2480011.863866365753	0.0010883012453788
3	24328	2480360.566490626256	0.0010885514132408
3	24330	2480484.829549565352	0.0010889000278589
3	24334	2480817.741318824752	0.0010891569965005
3	24338	2481152.117019816173	0.0010894132534069
3	24345	2482332.686290122409	0.001089297987709
3	24356	2483213.790520412096	0.0010893141824221
3	24367	2484476.781728029279	0.0010891629255307
3	24386	2485204.007981499764	0.0010892465935618
3	24400	2486163.185785010663	0.0010892285814074
3	24406	2486557.317680853294	0.0010894580956318
3	24412	2486820.114264376145	0.0010897450862873
3	24414	2486967.640916545428	0.0010900825388307
3	24427	2487690.935591612853	0.0010901675771693
3	24441	2488968.866264042345	0.0010900096167423
3	24447	2489378.051165707517	0.0010902321560717
3	24454	2489928.853358968387	0.0010903926015145
3	24463	2491441.733153475506	0.0010901318557277
3	24474	2492370.758796069863	0.0010901267359245
3	24481	2493056.508701489192	0.0010902279954399
3	24490	2494507.879339871577	0.0010899945526408
3	24494	2494783.141477639425	0.0010902751244298
3	24498	2495268.196976390425	0.0010904639442354
3	24506	2496713.883596877697	0.0010902330530876
3	24516	2497354.76748226498	0.0010903536956206
3	24530	2498956.278242487417	0.0010900550856839
3	24539	2499674.537997483689	0.0010901419199089
3	24550	2501205.296574117356	0.0010898745511749
3	24552	2501457.756303679999	0.0010901643224348
3	24561	2502864.51482118578	0.0010899511275363
3	24570	2504485.530647982018	0.0010896449456803
3	24579	2505638.810842867481	0.0010895425103515
3	24583	2507532.564285440285	0.00108911845808
3	24596	2509873.078079107692	0.0010885012568408
3	24611	2511271.84689389187	0.001088293170403
3	24622	2513258.05419924826	0.0010878309911041
3	24626	2513982.838685908741	0.0010879151432194
3	24640	2515577.107170757248	0.0010876231907982
3	24649	2516477.765206145094	0.0010876313066791
3	24662	2518872.067627559303	0.001086994466765
3	24666	2519132.250132497401	0.0010872791612493
3	24681	2520374.308463612241	0.0010871401088318
3	24683	2520514.637148474515	0.0010874763270968
3	24687	2520985.864698201252	0.0010876697241332
3	24696	2522086.969239826136	0.0010875913612237
3	24700	2522728.465421199536	0.0010877111974641
3	24711	2524216.149741902915	0.0010874663012835
3	24725	2524664.51572315887	0.0010876692657176
3	24732	2526227.515362523715	0.0010873921621449
3	24741	2527012.974895726875	0.0010874498972897
3	24750	2528905.424800347172	0.0010870315564359
3	24769	2530263.698157791235	0.0010868432416756
3	24789	2532065.24598432659	0.0010864648943636
3	24793	2532616.436546628983	0.0010866232881883
3	24795	2532671.61188392117	0.0010869944556105
3	24797	2532940.312378984258	0.0010872739426747
3	24813	2534789.818337021375	0.0010868751247421
3	24835	2535983.58302741204	0.001086757823846
3	24837	2536137.331704378138	0.001087086241559
3	24841	2536534.058200288416	0.0010873104546275
3	24843	2536649.912783860899	0.0010876550154184
3	24866	2538444.703312198051	0.0010872799381443
3	24882	2539704.440169353689	0.001087134375296
3	24886	2540404.020129764673	0.0010872286369075
3	24897	2540950.138879457061	0.0010873885157064
3	24901	2541245.640165331148	0.0010876555797338
3	24905	2541881.445482633582	0.0010877769318919
3	24914	2542624.241876172672	0.0010878524456917
3	24925	2543726.03112238776	0.0010877743774864
3	24931	2544810.575270378296	0.0010877037477361
3	24959	2545610.674368741441	0.0010877547096579
3	24961	2546021.03562799805	0.001087972157825
3	24979	2547060.244550285881	0.0010879208711018
3	24981	2547219.609867812102	0.0010882453908809
3	24985	2547385.463628023139	0.0010885670973605
3	25000	2548382.447413119164	0.0010885336315261
3	25002	2548507.171335327255	0.0010888727452731
3	25025	2550079.399231936543	0.0010885935554933
3	25039	2551360.268233346455	0.0010884389925547
3	25041	2551436.65177702717	0.0010887983435
3	25052	2553614.730072850383	0.0010882612663817
3	25056	2554106.246360370938	0.0010884433660352
3	25060	2554588.270943878345	0.0010886294404587
3	25062	2554783.235141969764	0.001088937786084
3	25066	2555276.870823766906	0.0010891187689977
3	25077	2556610.715063335666	0.0010889416928424
3	25079	2556706.952821440054	0.0010892918317943
3	25083	2557755.260180591123	0.0010892363485173
3	25094	2559992.842696961882	0.0010886749187407
3	25108	2561615.306205930812	0.0010883757577672
3	25122	2563752.738162786081	0.0010878584188265
3	25129	2564159.510437054371	0.0010880758348471
3	25133	2566067.811896695162	0.0010876563694305
3	25147	2567836.630951245797	0.001087296585128
3	25153	2568456.888367407231	0.0010874233523831
3	25157	2568552.189815657402	0.0010877723299056
3	25168	2570266.626200855073	0.0010874358214468
3	25172	2570945.450851958563	0.0010875376601528
3	25186	2571831.12177295044	0.0010875519688368
3	25197	2572816.256377936198	0.0010875242229459
3	25207	2573849.421805732214	0.0010874762044301
3	25221	2574283.961812931232	0.0010876810956116
3	25227	2574403.444036965399	0.0010880190540795
3	25234	2574871.927714395562	0.0010882094638731
3	25243	2575669.850453076328	0.0010882605934557
3	25255	2578607.12259326868	0.0010874087701969
3	25259	2579317.873800570913	0.0010874968256111
3	25273	2583695.561157884846	0.0010860412666973
3	25277	2584421.111283601646	0.001086123305426
3	25296	2586674.973825461272	0.001085563523989
3	25309	2587885.938684601081	0.0010854419655867
3	25319	2588391.918597339968	0.0010856161232039
3	25341	2590365.78787387442	0.0010851749251627
3	25343	2590424.364108787674	0.0010855364236691
3	25356	2590965.471698700833	0.001085695672415

